
---------- Begin Simulation Statistics ----------
simSeconds                                   1.034029                       # Number of seconds simulated (Second)
simTicks                                 1034029220000                       # Number of ticks simulated (Tick)
finalTick                                1034029220000                       # Number of ticks from beginning of simulation (restored from checkpoints and never reset) (Tick)
simFreq                                  1000000000000                       # The number of ticks per simulated second ((Tick/Second))
hostSeconds                                   4967.54                       # Real time elapsed on the host (Second)
hostTickRate                                208157211                       # The number of ticks simulated per host second (ticks/s) ((Tick/Second))
hostMemory                                    9312532                       # Number of bytes of host memory used (Byte)
simInsts                                   1223414299                       # Number of instructions simulated (Count)
simOps                                     2191258170                       # Number of ops (including micro ops) simulated (Count)
hostInstRate                                   246282                       # Simulator instruction rate (inst/s) ((Count/Second))
hostOpRate                                     441115                       # Simulator op (including micro ops) rate (op/s) ((Count/Second))
system.clk_domain.clock                          1000                       # Clock period in ticks (Tick)
system.clk_domain.voltage_domain.voltage            1                       # Voltage in Volts (Volt)
system.cpu.numCycles                       1034029221                       # Number of cpu cycles simulated (Cycle)
system.cpu.cpi                               0.845200                       # CPI: cycles per instruction (core level) ((Cycle/Count))
system.cpu.ipc                               1.183153                       # IPC: instructions per cycle (core level) ((Count/Cycle))
system.cpu.numWorkItemsStarted                      0                       # Number of work items this cpu started (Count)
system.cpu.numWorkItemsCompleted                    0                       # Number of work items this cpu completed (Count)
system.cpu.instsAdded                      2378882750                       # Number of instructions added to the IQ (excludes non-spec) (Count)
system.cpu.nonSpecInstsAdded                     4981                       # Number of non-speculative instructions added to the IQ (Count)
system.cpu.instsIssued                     2364668230                       # Number of instructions issued (Count)
system.cpu.squashedInstsIssued                 138514                       # Number of squashed instructions issued (Count)
system.cpu.squashedInstsExamined            187629550                       # Number of squashed instructions iterated over during squash; mainly for profiling (Count)
system.cpu.squashedOperandsExamined          79424753                       # Number of squashed operands that are examined and possibly removed from graph (Count)
system.cpu.squashedNonSpecRemoved                 935                       # Number of squashed non-spec instructions that were removed (Count)
system.cpu.numIssuedDist::samples          1033508334                       # Number of insts issued each cycle (Count)
system.cpu.numIssuedDist::mean               2.288001                       # Number of insts issued each cycle (Count)
system.cpu.numIssuedDist::stdev              2.735561                       # Number of insts issued each cycle (Count)
system.cpu.numIssuedDist::underflows                0      0.00%      0.00% # Number of insts issued each cycle (Count)
system.cpu.numIssuedDist::0                 486894825     47.11%     47.11% # Number of insts issued each cycle (Count)
system.cpu.numIssuedDist::1                  86676992      8.39%     55.50% # Number of insts issued each cycle (Count)
system.cpu.numIssuedDist::2                  62833704      6.08%     61.58% # Number of insts issued each cycle (Count)
system.cpu.numIssuedDist::3                  74363802      7.20%     68.77% # Number of insts issued each cycle (Count)
system.cpu.numIssuedDist::4                  61193830      5.92%     74.69% # Number of insts issued each cycle (Count)
system.cpu.numIssuedDist::5                  65826055      6.37%     81.06% # Number of insts issued each cycle (Count)
system.cpu.numIssuedDist::6                  71370744      6.91%     87.97% # Number of insts issued each cycle (Count)
system.cpu.numIssuedDist::7                  67684691      6.55%     94.52% # Number of insts issued each cycle (Count)
system.cpu.numIssuedDist::8                  56663691      5.48%    100.00% # Number of insts issued each cycle (Count)
system.cpu.numIssuedDist::overflows                 0      0.00%    100.00% # Number of insts issued each cycle (Count)
system.cpu.numIssuedDist::min_value                 0                       # Number of insts issued each cycle (Count)
system.cpu.numIssuedDist::max_value                 8                       # Number of insts issued each cycle (Count)
system.cpu.numIssuedDist::total            1033508334                       # Number of insts issued each cycle (Count)
system.cpu.statFuBusy::No_OpClass                   0      0.00%      0.00% # attempts to use FU when none available (Count)
system.cpu.statFuBusy::IntAlu                53485883     92.40%     92.40% # attempts to use FU when none available (Count)
system.cpu.statFuBusy::IntMult                      0      0.00%     92.40% # attempts to use FU when none available (Count)
system.cpu.statFuBusy::IntDiv                       0      0.00%     92.40% # attempts to use FU when none available (Count)
system.cpu.statFuBusy::FloatAdd                     0      0.00%     92.40% # attempts to use FU when none available (Count)
system.cpu.statFuBusy::FloatCmp                     0      0.00%     92.40% # attempts to use FU when none available (Count)
system.cpu.statFuBusy::FloatCvt                     0      0.00%     92.40% # attempts to use FU when none available (Count)
system.cpu.statFuBusy::FloatMult                    0      0.00%     92.40% # attempts to use FU when none available (Count)
system.cpu.statFuBusy::FloatMultAcc                 0      0.00%     92.40% # attempts to use FU when none available (Count)
system.cpu.statFuBusy::FloatDiv                     0      0.00%     92.40% # attempts to use FU when none available (Count)
system.cpu.statFuBusy::FloatMisc                    0      0.00%     92.40% # attempts to use FU when none available (Count)
system.cpu.statFuBusy::FloatSqrt                    0      0.00%     92.40% # attempts to use FU when none available (Count)
system.cpu.statFuBusy::SimdAdd                      2      0.00%     92.40% # attempts to use FU when none available (Count)
system.cpu.statFuBusy::SimdAddAcc                   0      0.00%     92.40% # attempts to use FU when none available (Count)
system.cpu.statFuBusy::SimdAlu                    130      0.00%     92.40% # attempts to use FU when none available (Count)
system.cpu.statFuBusy::SimdCmp                      2      0.00%     92.40% # attempts to use FU when none available (Count)
system.cpu.statFuBusy::SimdCvt                    219      0.00%     92.40% # attempts to use FU when none available (Count)
system.cpu.statFuBusy::SimdMisc                    17      0.00%     92.40% # attempts to use FU when none available (Count)
system.cpu.statFuBusy::SimdMult                     0      0.00%     92.40% # attempts to use FU when none available (Count)
system.cpu.statFuBusy::SimdMultAcc                  0      0.00%     92.40% # attempts to use FU when none available (Count)
system.cpu.statFuBusy::SimdMatMultAcc               0      0.00%     92.40% # attempts to use FU when none available (Count)
system.cpu.statFuBusy::SimdShift                   82      0.00%     92.40% # attempts to use FU when none available (Count)
system.cpu.statFuBusy::SimdShiftAcc                 0      0.00%     92.40% # attempts to use FU when none available (Count)
system.cpu.statFuBusy::SimdDiv                      0      0.00%     92.40% # attempts to use FU when none available (Count)
system.cpu.statFuBusy::SimdSqrt                     0      0.00%     92.40% # attempts to use FU when none available (Count)
system.cpu.statFuBusy::SimdFloatAdd                 0      0.00%     92.40% # attempts to use FU when none available (Count)
system.cpu.statFuBusy::SimdFloatAlu                 0      0.00%     92.40% # attempts to use FU when none available (Count)
system.cpu.statFuBusy::SimdFloatCmp                 0      0.00%     92.40% # attempts to use FU when none available (Count)
system.cpu.statFuBusy::SimdFloatCvt                 0      0.00%     92.40% # attempts to use FU when none available (Count)
system.cpu.statFuBusy::SimdFloatDiv                 0      0.00%     92.40% # attempts to use FU when none available (Count)
system.cpu.statFuBusy::SimdFloatMisc                0      0.00%     92.40% # attempts to use FU when none available (Count)
system.cpu.statFuBusy::SimdFloatMult                0      0.00%     92.40% # attempts to use FU when none available (Count)
system.cpu.statFuBusy::SimdFloatMultAcc             0      0.00%     92.40% # attempts to use FU when none available (Count)
system.cpu.statFuBusy::SimdFloatMatMultAcc            0      0.00%     92.40% # attempts to use FU when none available (Count)
system.cpu.statFuBusy::SimdFloatSqrt                0      0.00%     92.40% # attempts to use FU when none available (Count)
system.cpu.statFuBusy::SimdReduceAdd                0      0.00%     92.40% # attempts to use FU when none available (Count)
system.cpu.statFuBusy::SimdReduceAlu                0      0.00%     92.40% # attempts to use FU when none available (Count)
system.cpu.statFuBusy::SimdReduceCmp                0      0.00%     92.40% # attempts to use FU when none available (Count)
system.cpu.statFuBusy::SimdFloatReduceAdd            0      0.00%     92.40% # attempts to use FU when none available (Count)
system.cpu.statFuBusy::SimdFloatReduceCmp            0      0.00%     92.40% # attempts to use FU when none available (Count)
system.cpu.statFuBusy::SimdAes                      0      0.00%     92.40% # attempts to use FU when none available (Count)
system.cpu.statFuBusy::SimdAesMix                   0      0.00%     92.40% # attempts to use FU when none available (Count)
system.cpu.statFuBusy::SimdSha1Hash                 0      0.00%     92.40% # attempts to use FU when none available (Count)
system.cpu.statFuBusy::SimdSha1Hash2                0      0.00%     92.40% # attempts to use FU when none available (Count)
system.cpu.statFuBusy::SimdSha256Hash               0      0.00%     92.40% # attempts to use FU when none available (Count)
system.cpu.statFuBusy::SimdSha256Hash2              0      0.00%     92.40% # attempts to use FU when none available (Count)
system.cpu.statFuBusy::SimdShaSigma2                0      0.00%     92.40% # attempts to use FU when none available (Count)
system.cpu.statFuBusy::SimdShaSigma3                0      0.00%     92.40% # attempts to use FU when none available (Count)
system.cpu.statFuBusy::SimdPredAlu                  0      0.00%     92.40% # attempts to use FU when none available (Count)
system.cpu.statFuBusy::Matrix                       0      0.00%     92.40% # attempts to use FU when none available (Count)
system.cpu.statFuBusy::MatrixMov                    0      0.00%     92.40% # attempts to use FU when none available (Count)
system.cpu.statFuBusy::MatrixOP                     0      0.00%     92.40% # attempts to use FU when none available (Count)
system.cpu.statFuBusy::MemRead                3775590      6.52%     98.93% # attempts to use FU when none available (Count)
system.cpu.statFuBusy::MemWrite                437148      0.76%     99.68% # attempts to use FU when none available (Count)
system.cpu.statFuBusy::FloatMemRead               671      0.00%     99.68% # attempts to use FU when none available (Count)
system.cpu.statFuBusy::FloatMemWrite           183173      0.32%    100.00% # attempts to use FU when none available (Count)
system.cpu.statFuBusy::IprAccess                    0      0.00%    100.00% # attempts to use FU when none available (Count)
system.cpu.statFuBusy::InstPrefetch                 0      0.00%    100.00% # attempts to use FU when none available (Count)
system.cpu.statFuBusy::SimdUnitStrideLoad            0      0.00%    100.00% # attempts to use FU when none available (Count)
system.cpu.statFuBusy::SimdUnitStrideStore            0      0.00%    100.00% # attempts to use FU when none available (Count)
system.cpu.statFuBusy::SimdUnitStrideMaskLoad            0      0.00%    100.00% # attempts to use FU when none available (Count)
system.cpu.statFuBusy::SimdUnitStrideMaskStore            0      0.00%    100.00% # attempts to use FU when none available (Count)
system.cpu.statFuBusy::SimdStridedLoad              0      0.00%    100.00% # attempts to use FU when none available (Count)
system.cpu.statFuBusy::SimdStridedStore             0      0.00%    100.00% # attempts to use FU when none available (Count)
system.cpu.statFuBusy::SimdIndexedLoad              0      0.00%    100.00% # attempts to use FU when none available (Count)
system.cpu.statFuBusy::SimdIndexedStore             0      0.00%    100.00% # attempts to use FU when none available (Count)
system.cpu.statFuBusy::SimdWholeRegisterLoad            0      0.00%    100.00% # attempts to use FU when none available (Count)
system.cpu.statFuBusy::SimdWholeRegisterStore            0      0.00%    100.00% # attempts to use FU when none available (Count)
system.cpu.statFuBusy::SimdUnitStrideFaultOnlyFirstLoad            0      0.00%    100.00% # attempts to use FU when none available (Count)
system.cpu.statFuBusy::SimdUnitStrideSegmentedLoad            0      0.00%    100.00% # attempts to use FU when none available (Count)
system.cpu.statFuBusy::SimdUnitStrideSegmentedStore            0      0.00%    100.00% # attempts to use FU when none available (Count)
system.cpu.statFuBusy::SimdExt                      0      0.00%    100.00% # attempts to use FU when none available (Count)
system.cpu.statFuBusy::SimdFloatExt                 0      0.00%    100.00% # attempts to use FU when none available (Count)
system.cpu.statFuBusy::SimdConfig                   0      0.00%    100.00% # attempts to use FU when none available (Count)
system.cpu.statIssuedInstType_0::No_OpClass     24456049      1.03%      1.03% # Number of instructions issued per FU type, per thread (Count)
system.cpu.statIssuedInstType_0::IntAlu    1741317237     73.64%     74.67% # Number of instructions issued per FU type, per thread (Count)
system.cpu.statIssuedInstType_0::IntMult          356      0.00%     74.67% # Number of instructions issued per FU type, per thread (Count)
system.cpu.statIssuedInstType_0::IntDiv      41938331      1.77%     76.45% # Number of instructions issued per FU type, per thread (Count)
system.cpu.statIssuedInstType_0::FloatAdd      8129500      0.34%     76.79% # Number of instructions issued per FU type, per thread (Count)
system.cpu.statIssuedInstType_0::FloatCmp            0      0.00%     76.79% # Number of instructions issued per FU type, per thread (Count)
system.cpu.statIssuedInstType_0::FloatCvt         1302      0.00%     76.79% # Number of instructions issued per FU type, per thread (Count)
system.cpu.statIssuedInstType_0::FloatMult            0      0.00%     76.79% # Number of instructions issued per FU type, per thread (Count)
system.cpu.statIssuedInstType_0::FloatMultAcc            0      0.00%     76.79% # Number of instructions issued per FU type, per thread (Count)
system.cpu.statIssuedInstType_0::FloatDiv            0      0.00%     76.79% # Number of instructions issued per FU type, per thread (Count)
system.cpu.statIssuedInstType_0::FloatMisc            0      0.00%     76.79% # Number of instructions issued per FU type, per thread (Count)
system.cpu.statIssuedInstType_0::FloatSqrt            0      0.00%     76.79% # Number of instructions issued per FU type, per thread (Count)
system.cpu.statIssuedInstType_0::SimdAdd         7227      0.00%     76.79% # Number of instructions issued per FU type, per thread (Count)
system.cpu.statIssuedInstType_0::SimdAddAcc            0      0.00%     76.79% # Number of instructions issued per FU type, per thread (Count)
system.cpu.statIssuedInstType_0::SimdAlu      8721009      0.37%     77.16% # Number of instructions issued per FU type, per thread (Count)
system.cpu.statIssuedInstType_0::SimdCmp           16      0.00%     77.16% # Number of instructions issued per FU type, per thread (Count)
system.cpu.statIssuedInstType_0::SimdCvt        16064      0.00%     77.16% # Number of instructions issued per FU type, per thread (Count)
system.cpu.statIssuedInstType_0::SimdMisc     10221786      0.43%     77.59% # Number of instructions issued per FU type, per thread (Count)
system.cpu.statIssuedInstType_0::SimdMult            0      0.00%     77.59% # Number of instructions issued per FU type, per thread (Count)
system.cpu.statIssuedInstType_0::SimdMultAcc            0      0.00%     77.59% # Number of instructions issued per FU type, per thread (Count)
system.cpu.statIssuedInstType_0::SimdMatMultAcc            0      0.00%     77.59% # Number of instructions issued per FU type, per thread (Count)
system.cpu.statIssuedInstType_0::SimdShift         4036      0.00%     77.59% # Number of instructions issued per FU type, per thread (Count)
system.cpu.statIssuedInstType_0::SimdShiftAcc            0      0.00%     77.59% # Number of instructions issued per FU type, per thread (Count)
system.cpu.statIssuedInstType_0::SimdDiv            0      0.00%     77.59% # Number of instructions issued per FU type, per thread (Count)
system.cpu.statIssuedInstType_0::SimdSqrt            0      0.00%     77.59% # Number of instructions issued per FU type, per thread (Count)
system.cpu.statIssuedInstType_0::SimdFloatAdd          106      0.00%     77.59% # Number of instructions issued per FU type, per thread (Count)
system.cpu.statIssuedInstType_0::SimdFloatAlu            0      0.00%     77.59% # Number of instructions issued per FU type, per thread (Count)
system.cpu.statIssuedInstType_0::SimdFloatCmp            0      0.00%     77.59% # Number of instructions issued per FU type, per thread (Count)
system.cpu.statIssuedInstType_0::SimdFloatCvt          436      0.00%     77.59% # Number of instructions issued per FU type, per thread (Count)
system.cpu.statIssuedInstType_0::SimdFloatDiv           67      0.00%     77.59% # Number of instructions issued per FU type, per thread (Count)
system.cpu.statIssuedInstType_0::SimdFloatMisc            0      0.00%     77.59% # Number of instructions issued per FU type, per thread (Count)
system.cpu.statIssuedInstType_0::SimdFloatMult           37      0.00%     77.59% # Number of instructions issued per FU type, per thread (Count)
system.cpu.statIssuedInstType_0::SimdFloatMultAcc            0      0.00%     77.59% # Number of instructions issued per FU type, per thread (Count)
system.cpu.statIssuedInstType_0::SimdFloatMatMultAcc            0      0.00%     77.59% # Number of instructions issued per FU type, per thread (Count)
system.cpu.statIssuedInstType_0::SimdFloatSqrt            0      0.00%     77.59% # Number of instructions issued per FU type, per thread (Count)
system.cpu.statIssuedInstType_0::SimdReduceAdd            0      0.00%     77.59% # Number of instructions issued per FU type, per thread (Count)
system.cpu.statIssuedInstType_0::SimdReduceAlu            0      0.00%     77.59% # Number of instructions issued per FU type, per thread (Count)
system.cpu.statIssuedInstType_0::SimdReduceCmp            0      0.00%     77.59% # Number of instructions issued per FU type, per thread (Count)
system.cpu.statIssuedInstType_0::SimdFloatReduceAdd            0      0.00%     77.59% # Number of instructions issued per FU type, per thread (Count)
system.cpu.statIssuedInstType_0::SimdFloatReduceCmp            0      0.00%     77.59% # Number of instructions issued per FU type, per thread (Count)
system.cpu.statIssuedInstType_0::SimdAes            0      0.00%     77.59% # Number of instructions issued per FU type, per thread (Count)
system.cpu.statIssuedInstType_0::SimdAesMix            0      0.00%     77.59% # Number of instructions issued per FU type, per thread (Count)
system.cpu.statIssuedInstType_0::SimdSha1Hash            0      0.00%     77.59% # Number of instructions issued per FU type, per thread (Count)
system.cpu.statIssuedInstType_0::SimdSha1Hash2            0      0.00%     77.59% # Number of instructions issued per FU type, per thread (Count)
system.cpu.statIssuedInstType_0::SimdSha256Hash            0      0.00%     77.59% # Number of instructions issued per FU type, per thread (Count)
system.cpu.statIssuedInstType_0::SimdSha256Hash2            0      0.00%     77.59% # Number of instructions issued per FU type, per thread (Count)
system.cpu.statIssuedInstType_0::SimdShaSigma2            0      0.00%     77.59% # Number of instructions issued per FU type, per thread (Count)
system.cpu.statIssuedInstType_0::SimdShaSigma3            0      0.00%     77.59% # Number of instructions issued per FU type, per thread (Count)
system.cpu.statIssuedInstType_0::SimdPredAlu            0      0.00%     77.59% # Number of instructions issued per FU type, per thread (Count)
system.cpu.statIssuedInstType_0::Matrix             0      0.00%     77.59% # Number of instructions issued per FU type, per thread (Count)
system.cpu.statIssuedInstType_0::MatrixMov            0      0.00%     77.59% # Number of instructions issued per FU type, per thread (Count)
system.cpu.statIssuedInstType_0::MatrixOP            0      0.00%     77.59% # Number of instructions issued per FU type, per thread (Count)
system.cpu.statIssuedInstType_0::MemRead    306290095     12.95%     90.55% # Number of instructions issued per FU type, per thread (Count)
system.cpu.statIssuedInstType_0::MemWrite    186844172      7.90%     98.45% # Number of instructions issued per FU type, per thread (Count)
system.cpu.statIssuedInstType_0::FloatMemRead      6531055      0.28%     98.72% # Number of instructions issued per FU type, per thread (Count)
system.cpu.statIssuedInstType_0::FloatMemWrite     30189349      1.28%    100.00% # Number of instructions issued per FU type, per thread (Count)
system.cpu.statIssuedInstType_0::IprAccess            0      0.00%    100.00% # Number of instructions issued per FU type, per thread (Count)
system.cpu.statIssuedInstType_0::InstPrefetch            0      0.00%    100.00% # Number of instructions issued per FU type, per thread (Count)
system.cpu.statIssuedInstType_0::SimdUnitStrideLoad            0      0.00%    100.00% # Number of instructions issued per FU type, per thread (Count)
system.cpu.statIssuedInstType_0::SimdUnitStrideStore            0      0.00%    100.00% # Number of instructions issued per FU type, per thread (Count)
system.cpu.statIssuedInstType_0::SimdUnitStrideMaskLoad            0      0.00%    100.00% # Number of instructions issued per FU type, per thread (Count)
system.cpu.statIssuedInstType_0::SimdUnitStrideMaskStore            0      0.00%    100.00% # Number of instructions issued per FU type, per thread (Count)
system.cpu.statIssuedInstType_0::SimdStridedLoad            0      0.00%    100.00% # Number of instructions issued per FU type, per thread (Count)
system.cpu.statIssuedInstType_0::SimdStridedStore            0      0.00%    100.00% # Number of instructions issued per FU type, per thread (Count)
system.cpu.statIssuedInstType_0::SimdIndexedLoad            0      0.00%    100.00% # Number of instructions issued per FU type, per thread (Count)
system.cpu.statIssuedInstType_0::SimdIndexedStore            0      0.00%    100.00% # Number of instructions issued per FU type, per thread (Count)
system.cpu.statIssuedInstType_0::SimdWholeRegisterLoad            0      0.00%    100.00% # Number of instructions issued per FU type, per thread (Count)
system.cpu.statIssuedInstType_0::SimdWholeRegisterStore            0      0.00%    100.00% # Number of instructions issued per FU type, per thread (Count)
system.cpu.statIssuedInstType_0::SimdUnitStrideFaultOnlyFirstLoad            0      0.00%    100.00% # Number of instructions issued per FU type, per thread (Count)
system.cpu.statIssuedInstType_0::SimdUnitStrideSegmentedLoad            0      0.00%    100.00% # Number of instructions issued per FU type, per thread (Count)
system.cpu.statIssuedInstType_0::SimdUnitStrideSegmentedStore            0      0.00%    100.00% # Number of instructions issued per FU type, per thread (Count)
system.cpu.statIssuedInstType_0::SimdExt            0      0.00%    100.00% # Number of instructions issued per FU type, per thread (Count)
system.cpu.statIssuedInstType_0::SimdFloatExt            0      0.00%    100.00% # Number of instructions issued per FU type, per thread (Count)
system.cpu.statIssuedInstType_0::SimdConfig            0      0.00%    100.00% # Number of instructions issued per FU type, per thread (Count)
system.cpu.statIssuedInstType_0::total     2364668230                       # Number of instructions issued per FU type, per thread (Count)
system.cpu.issueRate                         2.286849                       # Inst issue rate ((Count/Cycle))
system.cpu.fuBusy                            57882917                       # FU busy when requested (Count)
system.cpu.fuBusyRate                        0.024478                       # FU busy rate (busy events/executed inst) ((Count/Count))
system.cpu.intInstQueueReads               5668445060                       # Number of integer instruction queue reads (Count)
system.cpu.intInstQueueWrites              2490332994                       # Number of integer instruction queue writes (Count)
system.cpu.intInstQueueWakeupAccesses      2286452275                       # Number of integer instruction queue wakeup accesses (Count)
system.cpu.fpInstQueueReads                 152421165                       # Number of floating instruction queue reads (Count)
system.cpu.fpInstQueueWrites                 76187554                       # Number of floating instruction queue writes (Count)
system.cpu.fpInstQueueWakeupAccesses         76064375                       # Number of floating instruction queue wakeup accesses (Count)
system.cpu.vecInstQueueReads                        0                       # Number of vector instruction queue reads (Count)
system.cpu.vecInstQueueWrites                       0                       # Number of vector instruction queue writes (Count)
system.cpu.vecInstQueueWakeupAccesses               0                       # Number of vector instruction queue wakeup accesses (Count)
system.cpu.intAluAccesses                  2321792491                       # Number of integer alu accesses (Count)
system.cpu.fpAluAccesses                     76302607                       # Number of floating point alu accesses (Count)
system.cpu.vecAluAccesses                           0                       # Number of vector alu accesses (Count)
system.cpu.numSquashedInsts                    866086                       # Number of squashed instructions skipped in execute (Count)
system.cpu.numSwp                                   0                       # Number of swp insts executed (Count)
system.cpu.timesIdled                           57797                       # Number of times that the entire CPU went into an idle state and unscheduled itself (Count)
system.cpu.idleCycles                          520887                       # Total number of cycles that the CPU has spent unscheduled due to idling (Cycle)
system.cpu.MemDepUnit__0.insertedLoads      314982804                       # Number of loads inserted to the mem dependence unit. (Count)
system.cpu.MemDepUnit__0.insertedStores     217444876                       # Number of stores inserted to the mem dependence unit. (Count)
system.cpu.MemDepUnit__0.conflictingLoads      8705279                       # Number of conflicting loads. (Count)
system.cpu.MemDepUnit__0.conflictingStores      1291494                       # Number of conflicting stores. (Count)
system.cpu.MemDepUnit__1.insertedLoads              0                       # Number of loads inserted to the mem dependence unit. (Count)
system.cpu.MemDepUnit__1.insertedStores             0                       # Number of stores inserted to the mem dependence unit. (Count)
system.cpu.MemDepUnit__1.conflictingLoads            0                       # Number of conflicting loads. (Count)
system.cpu.MemDepUnit__1.conflictingStores            0                       # Number of conflicting stores. (Count)
system.cpu.MemDepUnit__2.insertedLoads              0                       # Number of loads inserted to the mem dependence unit. (Count)
system.cpu.MemDepUnit__2.insertedStores             0                       # Number of stores inserted to the mem dependence unit. (Count)
system.cpu.MemDepUnit__2.conflictingLoads            0                       # Number of conflicting loads. (Count)
system.cpu.MemDepUnit__2.conflictingStores            0                       # Number of conflicting stores. (Count)
system.cpu.MemDepUnit__3.insertedLoads              0                       # Number of loads inserted to the mem dependence unit. (Count)
system.cpu.MemDepUnit__3.insertedStores             0                       # Number of stores inserted to the mem dependence unit. (Count)
system.cpu.MemDepUnit__3.conflictingLoads            0                       # Number of conflicting loads. (Count)
system.cpu.MemDepUnit__3.conflictingStores            0                       # Number of conflicting stores. (Count)
system.cpu.branchPred.lookups_0::NoBranch         2579      0.00%      0.00% # Number of BP lookups (Count)
system.cpu.branchPred.lookups_0::Return      14950202      5.72%      5.72% # Number of BP lookups (Count)
system.cpu.branchPred.lookups_0::CallDirect     18015570      6.89%     12.61% # Number of BP lookups (Count)
system.cpu.branchPred.lookups_0::CallIndirect         1309      0.00%     12.61% # Number of BP lookups (Count)
system.cpu.branchPred.lookups_0::DirectCond    196783689     75.24%     87.85% # Number of BP lookups (Count)
system.cpu.branchPred.lookups_0::DirectUncond     17161735      6.56%     94.41% # Number of BP lookups (Count)
system.cpu.branchPred.lookups_0::IndirectCond            0      0.00%     94.41% # Number of BP lookups (Count)
system.cpu.branchPred.lookups_0::IndirectUncond     14617485      5.59%    100.00% # Number of BP lookups (Count)
system.cpu.branchPred.lookups_0::total      261532569                       # Number of BP lookups (Count)
system.cpu.branchPred.squashes_0::NoBranch         2251      0.01%      0.01% # Number of branches that got squashed (completely removed) as an earlier branch was mispredicted. (Count)
system.cpu.branchPred.squashes_0::Return        25660      0.10%      0.11% # Number of branches that got squashed (completely removed) as an earlier branch was mispredicted. (Count)
system.cpu.branchPred.squashes_0::CallDirect      3091627     11.99%     12.10% # Number of branches that got squashed (completely removed) as an earlier branch was mispredicted. (Count)
system.cpu.branchPred.squashes_0::CallIndirect          705      0.00%     12.10% # Number of branches that got squashed (completely removed) as an earlier branch was mispredicted. (Count)
system.cpu.branchPred.squashes_0::DirectCond     17672372     68.53%     80.63% # Number of branches that got squashed (completely removed) as an earlier branch was mispredicted. (Count)
system.cpu.branchPred.squashes_0::DirectUncond      2907498     11.27%     91.90% # Number of branches that got squashed (completely removed) as an earlier branch was mispredicted. (Count)
system.cpu.branchPred.squashes_0::IndirectCond            0      0.00%     91.90% # Number of branches that got squashed (completely removed) as an earlier branch was mispredicted. (Count)
system.cpu.branchPred.squashes_0::IndirectUncond      2088049      8.10%    100.00% # Number of branches that got squashed (completely removed) as an earlier branch was mispredicted. (Count)
system.cpu.branchPred.squashes_0::total      25788162                       # Number of branches that got squashed (completely removed) as an earlier branch was mispredicted. (Count)
system.cpu.branchPred.corrected_0::NoBranch          572      0.04%      0.04% # Number of branches that got corrected but not yet commited. Branches get corrected by decode or after execute. Also a branch misprediction can be detected out-of-order. Therefore, a corrected branch might not end up beeing committed in case an even earlier branch was mispredicted (Count)
system.cpu.branchPred.corrected_0::Return           15      0.00%      0.05% # Number of branches that got corrected but not yet commited. Branches get corrected by decode or after execute. Also a branch misprediction can be detected out-of-order. Therefore, a corrected branch might not end up beeing committed in case an even earlier branch was mispredicted (Count)
system.cpu.branchPred.corrected_0::CallDirect          787      0.06%      0.11% # Number of branches that got corrected but not yet commited. Branches get corrected by decode or after execute. Also a branch misprediction can be detected out-of-order. Therefore, a corrected branch might not end up beeing committed in case an even earlier branch was mispredicted (Count)
system.cpu.branchPred.corrected_0::CallIndirect          249      0.02%      0.13% # Number of branches that got corrected but not yet commited. Branches get corrected by decode or after execute. Also a branch misprediction can be detected out-of-order. Therefore, a corrected branch might not end up beeing committed in case an even earlier branch was mispredicted (Count)
system.cpu.branchPred.corrected_0::DirectCond      1290779     99.73%     99.85% # Number of branches that got corrected but not yet commited. Branches get corrected by decode or after execute. Also a branch misprediction can be detected out-of-order. Therefore, a corrected branch might not end up beeing committed in case an even earlier branch was mispredicted (Count)
system.cpu.branchPred.corrected_0::DirectUncond          637      0.05%     99.90% # Number of branches that got corrected but not yet commited. Branches get corrected by decode or after execute. Also a branch misprediction can be detected out-of-order. Therefore, a corrected branch might not end up beeing committed in case an even earlier branch was mispredicted (Count)
system.cpu.branchPred.corrected_0::IndirectCond            0      0.00%     99.90% # Number of branches that got corrected but not yet commited. Branches get corrected by decode or after execute. Also a branch misprediction can be detected out-of-order. Therefore, a corrected branch might not end up beeing committed in case an even earlier branch was mispredicted (Count)
system.cpu.branchPred.corrected_0::IndirectUncond         1269      0.10%    100.00% # Number of branches that got corrected but not yet commited. Branches get corrected by decode or after execute. Also a branch misprediction can be detected out-of-order. Therefore, a corrected branch might not end up beeing committed in case an even earlier branch was mispredicted (Count)
system.cpu.branchPred.corrected_0::total      1294308                       # Number of branches that got corrected but not yet commited. Branches get corrected by decode or after execute. Also a branch misprediction can be detected out-of-order. Therefore, a corrected branch might not end up beeing committed in case an even earlier branch was mispredicted (Count)
system.cpu.branchPred.earlyResteers_0::NoBranch            0                       # Number of branches that got redirected after decode. (Count)
system.cpu.branchPred.earlyResteers_0::Return            0                       # Number of branches that got redirected after decode. (Count)
system.cpu.branchPred.earlyResteers_0::CallDirect            0                       # Number of branches that got redirected after decode. (Count)
system.cpu.branchPred.earlyResteers_0::CallIndirect            0                       # Number of branches that got redirected after decode. (Count)
system.cpu.branchPred.earlyResteers_0::DirectCond            0                       # Number of branches that got redirected after decode. (Count)
system.cpu.branchPred.earlyResteers_0::DirectUncond            0                       # Number of branches that got redirected after decode. (Count)
system.cpu.branchPred.earlyResteers_0::IndirectCond            0                       # Number of branches that got redirected after decode. (Count)
system.cpu.branchPred.earlyResteers_0::IndirectUncond            0                       # Number of branches that got redirected after decode. (Count)
system.cpu.branchPred.earlyResteers_0::total            0                       # Number of branches that got redirected after decode. (Count)
system.cpu.branchPred.committed_0::NoBranch          328      0.00%      0.00% # Number of branches finally committed  (Count)
system.cpu.branchPred.committed_0::Return     14924541      6.33%      6.33% # Number of branches finally committed  (Count)
system.cpu.branchPred.committed_0::CallDirect     14923942      6.33%     12.66% # Number of branches finally committed  (Count)
system.cpu.branchPred.committed_0::CallIndirect          604      0.00%     12.66% # Number of branches finally committed  (Count)
system.cpu.branchPred.committed_0::DirectCond    179111317     75.98%     88.64% # Number of branches finally committed  (Count)
system.cpu.branchPred.committed_0::DirectUncond     14254237      6.05%     94.69% # Number of branches finally committed  (Count)
system.cpu.branchPred.committed_0::IndirectCond            0      0.00%     94.69% # Number of branches finally committed  (Count)
system.cpu.branchPred.committed_0::IndirectUncond     12529436      5.31%    100.00% # Number of branches finally committed  (Count)
system.cpu.branchPred.committed_0::total    235744405                       # Number of branches finally committed  (Count)
system.cpu.branchPred.mispredicted_0::NoBranch          328      0.03%      0.03% # Number of committed branches that were mispredicted. (Count)
system.cpu.branchPred.mispredicted_0::Return            0      0.00%      0.03% # Number of committed branches that were mispredicted. (Count)
system.cpu.branchPred.mispredicted_0::CallDirect          490      0.04%      0.06% # Number of committed branches that were mispredicted. (Count)
system.cpu.branchPred.mispredicted_0::CallIndirect          214      0.02%      0.08% # Number of committed branches that were mispredicted. (Count)
system.cpu.branchPred.mispredicted_0::DirectCond      1279297     99.80%     99.88% # Number of committed branches that were mispredicted. (Count)
system.cpu.branchPred.mispredicted_0::DirectUncond          368      0.03%     99.91% # Number of committed branches that were mispredicted. (Count)
system.cpu.branchPred.mispredicted_0::IndirectCond            0      0.00%     99.91% # Number of committed branches that were mispredicted. (Count)
system.cpu.branchPred.mispredicted_0::IndirectUncond         1165      0.09%    100.00% # Number of committed branches that were mispredicted. (Count)
system.cpu.branchPred.mispredicted_0::total      1281862                       # Number of committed branches that were mispredicted. (Count)
system.cpu.branchPred.targetProvider_0::NoTarget    143736711     54.96%     54.96% # The component providing the target for taken branches (Count)
system.cpu.branchPred.targetProvider_0::BTB     88233946     33.74%     88.70% # The component providing the target for taken branches (Count)
system.cpu.branchPred.targetProvider_0::RAS     14950201      5.72%     94.41% # The component providing the target for taken branches (Count)
system.cpu.branchPred.targetProvider_0::Indirect     14611711      5.59%    100.00% # The component providing the target for taken branches (Count)
system.cpu.branchPred.targetProvider_0::total    261532569                       # The component providing the target for taken branches (Count)
system.cpu.branchPred.targetWrong_0::NoBranch       529976     41.02%     41.02% # Number of branches where the target was incorrect or not available at prediction time. (Count)
system.cpu.branchPred.targetWrong_0::Return       761794     58.96%     99.99% # Number of branches where the target was incorrect or not available at prediction time. (Count)
system.cpu.branchPred.targetWrong_0::CallDirect           15      0.00%     99.99% # Number of branches where the target was incorrect or not available at prediction time. (Count)
system.cpu.branchPred.targetWrong_0::CallIndirect          167      0.01%    100.00% # Number of branches where the target was incorrect or not available at prediction time. (Count)
system.cpu.branchPred.targetWrong_0::DirectCond            0      0.00%    100.00% # Number of branches where the target was incorrect or not available at prediction time. (Count)
system.cpu.branchPred.targetWrong_0::DirectUncond            0      0.00%    100.00% # Number of branches where the target was incorrect or not available at prediction time. (Count)
system.cpu.branchPred.targetWrong_0::IndirectCond            0      0.00%    100.00% # Number of branches where the target was incorrect or not available at prediction time. (Count)
system.cpu.branchPred.targetWrong_0::IndirectUncond            0      0.00%    100.00% # Number of branches where the target was incorrect or not available at prediction time. (Count)
system.cpu.branchPred.targetWrong_0::total      1291952                       # Number of branches where the target was incorrect or not available at prediction time. (Count)
system.cpu.branchPred.condPredicted         196786268                       # Number of conditional branches predicted (Count)
system.cpu.branchPred.condPredictedTaken     53061467                       # Number of conditional branches predicted as taken (Count)
system.cpu.branchPred.condIncorrect           1294308                       # Number of conditional branches incorrect (Count)
system.cpu.branchPred.predTakenBTBMiss           1755                       # Number of branches predicted taken but missed in BTB (Count)
system.cpu.branchPred.NotTakenMispredicted       531885                       # Number branches predicted 'not taken' but turned out to be taken (Count)
system.cpu.branchPred.TakenMispredicted        762423                       # Number branches predicted taken but are actually not taken (Count)
system.cpu.branchPred.BTBLookups            261532569                       # Number of BTB lookups (Count)
system.cpu.branchPred.BTBUpdates               529780                       # Number of BTB updates (Count)
system.cpu.branchPred.BTBHits               148796851                       # Number of BTB hits (Count)
system.cpu.branchPred.BTBHitRatio            0.568942                       # BTB Hit Ratio (Ratio)
system.cpu.branchPred.BTBMispredicted            2694                       # Number BTB mispredictions. No target found or target wrong (Count)
system.cpu.branchPred.indirectLookups        14618794                       # Number of indirect predictor lookups. (Count)
system.cpu.branchPred.indirectHits           14611711                       # Number of indirect target hits. (Count)
system.cpu.branchPred.indirectMisses             7083                       # Number of indirect misses. (Count)
system.cpu.branchPred.indirectMispredicted            0                       # Number of mispredicted indirect branches. (Count)
system.cpu.branchPred.btb.lookups::NoBranch         2579      0.00%      0.00% # Number of BTB lookups (Count)
system.cpu.branchPred.btb.lookups::Return     14950202      5.72%      5.72% # Number of BTB lookups (Count)
system.cpu.branchPred.btb.lookups::CallDirect     18015570      6.89%     12.61% # Number of BTB lookups (Count)
system.cpu.branchPred.btb.lookups::CallIndirect         1309      0.00%     12.61% # Number of BTB lookups (Count)
system.cpu.branchPred.btb.lookups::DirectCond    196783689     75.24%     87.85% # Number of BTB lookups (Count)
system.cpu.branchPred.btb.lookups::DirectUncond     17161735      6.56%     94.41% # Number of BTB lookups (Count)
system.cpu.branchPred.btb.lookups::IndirectCond            0      0.00%     94.41% # Number of BTB lookups (Count)
system.cpu.branchPred.btb.lookups::IndirectUncond     14617485      5.59%    100.00% # Number of BTB lookups (Count)
system.cpu.branchPred.btb.lookups::total    261532569                       # Number of BTB lookups (Count)
system.cpu.branchPred.btb.misses::NoBranch          386      0.00%      0.00% # Number of BTB misses (Count)
system.cpu.branchPred.btb.misses::Return     12925842     11.47%     11.47% # Number of BTB misses (Count)
system.cpu.branchPred.btb.misses::CallDirect         1245      0.00%     11.47% # Number of BTB misses (Count)
system.cpu.branchPred.btb.misses::CallIndirect         1309      0.00%     11.47% # Number of BTB misses (Count)
system.cpu.branchPred.btb.misses::DirectCond     85188509     75.56%     87.03% # Number of BTB misses (Count)
system.cpu.branchPred.btb.misses::DirectUncond          942      0.00%     87.03% # Number of BTB misses (Count)
system.cpu.branchPred.btb.misses::IndirectCond            0      0.00%     87.03% # Number of BTB misses (Count)
system.cpu.branchPred.btb.misses::IndirectUncond     14617485     12.97%    100.00% # Number of BTB misses (Count)
system.cpu.branchPred.btb.misses::total     112735718                       # Number of BTB misses (Count)
system.cpu.branchPred.btb.updates::NoBranch            0      0.00%      0.00% # Number of BTB updates (Count)
system.cpu.branchPred.btb.updates::Return            0      0.00%      0.00% # Number of BTB updates (Count)
system.cpu.branchPred.btb.updates::CallDirect          787      0.15%      0.15% # Number of BTB updates (Count)
system.cpu.branchPred.btb.updates::CallIndirect            0      0.00%      0.15% # Number of BTB updates (Count)
system.cpu.branchPred.btb.updates::DirectCond       528356     99.73%     99.88% # Number of BTB updates (Count)
system.cpu.branchPred.btb.updates::DirectUncond          637      0.12%    100.00% # Number of BTB updates (Count)
system.cpu.branchPred.btb.updates::IndirectCond            0      0.00%    100.00% # Number of BTB updates (Count)
system.cpu.branchPred.btb.updates::IndirectUncond            0      0.00%    100.00% # Number of BTB updates (Count)
system.cpu.branchPred.btb.updates::total       529780                       # Number of BTB updates (Count)
system.cpu.branchPred.btb.mispredict::NoBranch            0      0.00%      0.00% # Number of BTB mispredictions. No target found or target wrong. (Count)
system.cpu.branchPred.btb.mispredict::Return            0      0.00%      0.00% # Number of BTB mispredictions. No target found or target wrong. (Count)
system.cpu.branchPred.btb.mispredict::CallDirect          787      0.15%      0.15% # Number of BTB mispredictions. No target found or target wrong. (Count)
system.cpu.branchPred.btb.mispredict::CallIndirect            0      0.00%      0.15% # Number of BTB mispredictions. No target found or target wrong. (Count)
system.cpu.branchPred.btb.mispredict::DirectCond       528356     99.73%     99.88% # Number of BTB mispredictions. No target found or target wrong. (Count)
system.cpu.branchPred.btb.mispredict::DirectUncond          637      0.12%    100.00% # Number of BTB mispredictions. No target found or target wrong. (Count)
system.cpu.branchPred.btb.mispredict::IndirectCond            0      0.00%    100.00% # Number of BTB mispredictions. No target found or target wrong. (Count)
system.cpu.branchPred.btb.mispredict::IndirectUncond            0      0.00%    100.00% # Number of BTB mispredictions. No target found or target wrong. (Count)
system.cpu.branchPred.btb.mispredict::total       529780                       # Number of BTB mispredictions. No target found or target wrong. (Count)
system.cpu.branchPred.btb.power_state.pwrStateResidencyTicks::UNDEFINED 1034029220000                       # Cumulative time (in ticks) in various power states (Tick)
system.cpu.branchPred.indirectBranchPred.lookups     14618794                       # Number of lookups (Count)
system.cpu.branchPred.indirectBranchPred.hits     14611711                       # Number of hits of a tag (Count)
system.cpu.branchPred.indirectBranchPred.misses         7083                       # Number of misses (Count)
system.cpu.branchPred.indirectBranchPred.targetRecords         1518                       # Number of targets that where recorded/installed in the cache (Count)
system.cpu.branchPred.indirectBranchPred.indirectRecords     14620312                       # Number of indirect branches/calls recorded in the indirect hist (Count)
system.cpu.branchPred.indirectBranchPred.speculativeOverflows            1                       # Number of times more than the allowed capacity for speculative branches/calls where in flight and destroy the path history (Count)
system.cpu.branchPred.ras.pushes             18042539                       # Number of times a PC was pushed onto the RAS (Count)
system.cpu.branchPred.ras.pops               18042534                       # Number of times a PC was poped from the RAS (Count)
system.cpu.branchPred.ras.squashes            3117992                       # Number of times the stack operation was squashed due to wrong speculation. (Count)
system.cpu.branchPred.ras.used               14924541                       # Number of times the RAS is the provider (Count)
system.cpu.branchPred.ras.correct            14924541                       # Number of times the RAS is the provider and the prediction is correct (Count)
system.cpu.branchPred.ras.incorrect                 0                       # Number of times the RAS is the provider and the prediction is wrong (Count)
system.cpu.commit.commitSquashedInsts       187585680                       # The number of squashed insts skipped by commit (Count)
system.cpu.commit.commitNonSpecStalls            4046                       # The number of times commit has been forced to stall to communicate backwards (Count)
system.cpu.commit.branchMispredicts           1293106                       # The number of times a branch was mispredicted (Count)
system.cpu.commit.numCommittedDist::samples   1009157901                       # Number of insts commited each cycle (Count)
system.cpu.commit.numCommittedDist::mean     2.171373                       # Number of insts commited each cycle (Count)
system.cpu.commit.numCommittedDist::stdev     3.320277                       # Number of insts commited each cycle (Count)
system.cpu.commit.numCommittedDist::underflows            0      0.00%      0.00% # Number of insts commited each cycle (Count)
system.cpu.commit.numCommittedDist::0       629374806     62.37%     62.37% # Number of insts commited each cycle (Count)
system.cpu.commit.numCommittedDist::1        66854889      6.62%     68.99% # Number of insts commited each cycle (Count)
system.cpu.commit.numCommittedDist::2        12833698      1.27%     70.26% # Number of insts commited each cycle (Count)
system.cpu.commit.numCommittedDist::3        45670440      4.53%     74.79% # Number of insts commited each cycle (Count)
system.cpu.commit.numCommittedDist::4        12007830      1.19%     75.98% # Number of insts commited each cycle (Count)
system.cpu.commit.numCommittedDist::5         4069464      0.40%     76.38% # Number of insts commited each cycle (Count)
system.cpu.commit.numCommittedDist::6         3691028      0.37%     76.75% # Number of insts commited each cycle (Count)
system.cpu.commit.numCommittedDist::7         6046211      0.60%     77.35% # Number of insts commited each cycle (Count)
system.cpu.commit.numCommittedDist::8       228609535     22.65%    100.00% # Number of insts commited each cycle (Count)
system.cpu.commit.numCommittedDist::overflows            0      0.00%    100.00% # Number of insts commited each cycle (Count)
system.cpu.commit.numCommittedDist::min_value            0                       # Number of insts commited each cycle (Count)
system.cpu.commit.numCommittedDist::max_value            8                       # Number of insts commited each cycle (Count)
system.cpu.commit.numCommittedDist::total   1009157901                       # Number of insts commited each cycle (Count)
system.cpu.commit.amos                              0                       # Number of atomic instructions committed (Count)
system.cpu.commit.membars                        2170                       # Number of memory barriers committed (Count)
system.cpu.commit.functionCalls              14924546                       # Number of function calls committed. (Count)
system.cpu.commit.committedInstType_0::No_OpClass     21408787      0.98%      0.98% # Class of committed instruction (Count)
system.cpu.commit.committedInstType_0::IntAlu   1604292536     73.21%     74.19% # Class of committed instruction (Count)
system.cpu.commit.committedInstType_0::IntMult          160      0.00%     74.19% # Class of committed instruction (Count)
system.cpu.commit.committedInstType_0::IntDiv     37750007      1.72%     75.91% # Class of committed instruction (Count)
system.cpu.commit.committedInstType_0::FloatAdd      8124644      0.37%     76.28% # Class of committed instruction (Count)
system.cpu.commit.committedInstType_0::FloatCmp            0      0.00%     76.28% # Class of committed instruction (Count)
system.cpu.commit.committedInstType_0::FloatCvt         1280      0.00%     76.28% # Class of committed instruction (Count)
system.cpu.commit.committedInstType_0::FloatMult            0      0.00%     76.28% # Class of committed instruction (Count)
system.cpu.commit.committedInstType_0::FloatMultAcc            0      0.00%     76.28% # Class of committed instruction (Count)
system.cpu.commit.committedInstType_0::FloatDiv            0      0.00%     76.28% # Class of committed instruction (Count)
system.cpu.commit.committedInstType_0::FloatMisc            0      0.00%     76.28% # Class of committed instruction (Count)
system.cpu.commit.committedInstType_0::FloatSqrt            0      0.00%     76.28% # Class of committed instruction (Count)
system.cpu.commit.committedInstType_0::SimdAdd         6582      0.00%     76.28% # Class of committed instruction (Count)
system.cpu.commit.committedInstType_0::SimdAddAcc            0      0.00%     76.28% # Class of committed instruction (Count)
system.cpu.commit.committedInstType_0::SimdAlu      8711763      0.40%     76.68% # Class of committed instruction (Count)
system.cpu.commit.committedInstType_0::SimdCmp            6      0.00%     76.68% # Class of committed instruction (Count)
system.cpu.commit.committedInstType_0::SimdCvt        13634      0.00%     76.68% # Class of committed instruction (Count)
system.cpu.commit.committedInstType_0::SimdMisc     10218883      0.47%     77.15% # Class of committed instruction (Count)
system.cpu.commit.committedInstType_0::SimdMult            0      0.00%     77.15% # Class of committed instruction (Count)
system.cpu.commit.committedInstType_0::SimdMultAcc            0      0.00%     77.15% # Class of committed instruction (Count)
system.cpu.commit.committedInstType_0::SimdMatMultAcc            0      0.00%     77.15% # Class of committed instruction (Count)
system.cpu.commit.committedInstType_0::SimdShift         2065      0.00%     77.15% # Class of committed instruction (Count)
system.cpu.commit.committedInstType_0::SimdShiftAcc            0      0.00%     77.15% # Class of committed instruction (Count)
system.cpu.commit.committedInstType_0::SimdDiv            0      0.00%     77.15% # Class of committed instruction (Count)
system.cpu.commit.committedInstType_0::SimdSqrt            0      0.00%     77.15% # Class of committed instruction (Count)
system.cpu.commit.committedInstType_0::SimdFloatAdd           70      0.00%     77.15% # Class of committed instruction (Count)
system.cpu.commit.committedInstType_0::SimdFloatAlu            0      0.00%     77.15% # Class of committed instruction (Count)
system.cpu.commit.committedInstType_0::SimdFloatCmp            0      0.00%     77.15% # Class of committed instruction (Count)
system.cpu.commit.committedInstType_0::SimdFloatCvt          349      0.00%     77.15% # Class of committed instruction (Count)
system.cpu.commit.committedInstType_0::SimdFloatDiv           35      0.00%     77.15% # Class of committed instruction (Count)
system.cpu.commit.committedInstType_0::SimdFloatMisc            0      0.00%     77.15% # Class of committed instruction (Count)
system.cpu.commit.committedInstType_0::SimdFloatMult           34      0.00%     77.15% # Class of committed instruction (Count)
system.cpu.commit.committedInstType_0::SimdFloatMultAcc            0      0.00%     77.15% # Class of committed instruction (Count)
system.cpu.commit.committedInstType_0::SimdFloatMatMultAcc            0      0.00%     77.15% # Class of committed instruction (Count)
system.cpu.commit.committedInstType_0::SimdFloatSqrt            0      0.00%     77.15% # Class of committed instruction (Count)
system.cpu.commit.committedInstType_0::SimdReduceAdd            0      0.00%     77.15% # Class of committed instruction (Count)
system.cpu.commit.committedInstType_0::SimdReduceAlu            0      0.00%     77.15% # Class of committed instruction (Count)
system.cpu.commit.committedInstType_0::SimdReduceCmp            0      0.00%     77.15% # Class of committed instruction (Count)
system.cpu.commit.committedInstType_0::SimdFloatReduceAdd            0      0.00%     77.15% # Class of committed instruction (Count)
system.cpu.commit.committedInstType_0::SimdFloatReduceCmp            0      0.00%     77.15% # Class of committed instruction (Count)
system.cpu.commit.committedInstType_0::SimdAes            0      0.00%     77.15% # Class of committed instruction (Count)
system.cpu.commit.committedInstType_0::SimdAesMix            0      0.00%     77.15% # Class of committed instruction (Count)
system.cpu.commit.committedInstType_0::SimdSha1Hash            0      0.00%     77.15% # Class of committed instruction (Count)
system.cpu.commit.committedInstType_0::SimdSha1Hash2            0      0.00%     77.15% # Class of committed instruction (Count)
system.cpu.commit.committedInstType_0::SimdSha256Hash            0      0.00%     77.15% # Class of committed instruction (Count)
system.cpu.commit.committedInstType_0::SimdSha256Hash2            0      0.00%     77.15% # Class of committed instruction (Count)
system.cpu.commit.committedInstType_0::SimdShaSigma2            0      0.00%     77.15% # Class of committed instruction (Count)
system.cpu.commit.committedInstType_0::SimdShaSigma3            0      0.00%     77.15% # Class of committed instruction (Count)
system.cpu.commit.committedInstType_0::SimdPredAlu            0      0.00%     77.15% # Class of committed instruction (Count)
system.cpu.commit.committedInstType_0::Matrix            0      0.00%     77.15% # Class of committed instruction (Count)
system.cpu.commit.committedInstType_0::MatrixMov            0      0.00%     77.15% # Class of committed instruction (Count)
system.cpu.commit.committedInstType_0::MatrixOP            0      0.00%     77.15% # Class of committed instruction (Count)
system.cpu.commit.committedInstType_0::MemRead    292603892     13.35%     90.50% # Class of committed instruction (Count)
system.cpu.commit.committedInstType_0::MemWrite    171469608      7.83%     98.33% # Class of committed instruction (Count)
system.cpu.commit.committedInstType_0::FloatMemRead      6480063      0.30%     98.62% # Class of committed instruction (Count)
system.cpu.commit.committedInstType_0::FloatMemWrite     30173772      1.38%    100.00% # Class of committed instruction (Count)
system.cpu.commit.committedInstType_0::IprAccess            0      0.00%    100.00% # Class of committed instruction (Count)
system.cpu.commit.committedInstType_0::InstPrefetch            0      0.00%    100.00% # Class of committed instruction (Count)
system.cpu.commit.committedInstType_0::SimdUnitStrideLoad            0      0.00%    100.00% # Class of committed instruction (Count)
system.cpu.commit.committedInstType_0::SimdUnitStrideStore            0      0.00%    100.00% # Class of committed instruction (Count)
system.cpu.commit.committedInstType_0::SimdUnitStrideMaskLoad            0      0.00%    100.00% # Class of committed instruction (Count)
system.cpu.commit.committedInstType_0::SimdUnitStrideMaskStore            0      0.00%    100.00% # Class of committed instruction (Count)
system.cpu.commit.committedInstType_0::SimdStridedLoad            0      0.00%    100.00% # Class of committed instruction (Count)
system.cpu.commit.committedInstType_0::SimdStridedStore            0      0.00%    100.00% # Class of committed instruction (Count)
system.cpu.commit.committedInstType_0::SimdIndexedLoad            0      0.00%    100.00% # Class of committed instruction (Count)
system.cpu.commit.committedInstType_0::SimdIndexedStore            0      0.00%    100.00% # Class of committed instruction (Count)
system.cpu.commit.committedInstType_0::SimdWholeRegisterLoad            0      0.00%    100.00% # Class of committed instruction (Count)
system.cpu.commit.committedInstType_0::SimdWholeRegisterStore            0      0.00%    100.00% # Class of committed instruction (Count)
system.cpu.commit.committedInstType_0::SimdUnitStrideFaultOnlyFirstLoad            0      0.00%    100.00% # Class of committed instruction (Count)
system.cpu.commit.committedInstType_0::SimdUnitStrideSegmentedLoad            0      0.00%    100.00% # Class of committed instruction (Count)
system.cpu.commit.committedInstType_0::SimdUnitStrideSegmentedStore            0      0.00%    100.00% # Class of committed instruction (Count)
system.cpu.commit.committedInstType_0::SimdExt            0      0.00%    100.00% # Class of committed instruction (Count)
system.cpu.commit.committedInstType_0::SimdFloatExt            0      0.00%    100.00% # Class of committed instruction (Count)
system.cpu.commit.committedInstType_0::SimdConfig            0      0.00%    100.00% # Class of committed instruction (Count)
system.cpu.commit.committedInstType_0::total   2191258170                       # Class of committed instruction (Count)
system.cpu.commit.commitEligibleSamples     228609535                       # number cycles where commit BW limit reached (Cycle)
system.cpu.commitStats0.numInsts           1223414299                       # Number of instructions committed (thread level) (Count)
system.cpu.commitStats0.numOps             2191258170                       # Number of ops (including micro ops) committed (thread level) (Count)
system.cpu.commitStats0.numInstsNotNOP     1223414299                       # Number of instructions committed excluding NOPs or prefetches (Count)
system.cpu.commitStats0.numOpsNotNOP       2191258170                       # Number of Ops (including micro ops) Simulated (Count)
system.cpu.commitStats0.cpi                  0.845200                       # CPI: cycles per instruction (thread level) ((Cycle/Count))
system.cpu.commitStats0.ipc                  1.183153                       # IPC: instructions per cycle (thread level) ((Count/Cycle))
system.cpu.commitStats0.numMemRefs          500727335                       # Number of memory references committed (Count)
system.cpu.commitStats0.numFpInsts           76027746                       # Number of float instructions (Count)
system.cpu.commitStats0.numIntInsts        2135293309                       # Number of integer instructions (Count)
system.cpu.commitStats0.numLoadInsts        299083955                       # Number of load instructions (Count)
system.cpu.commitStats0.numStoreInsts       201643380                       # Number of store instructions (Count)
system.cpu.commitStats0.numVecInsts                 0                       # Number of vector instructions (Count)
system.cpu.commitStats0.committedInstType::No_OpClass     21408787      0.98%      0.98% # Class of committed instruction. (Count)
system.cpu.commitStats0.committedInstType::IntAlu   1604292536     73.21%     74.19% # Class of committed instruction. (Count)
system.cpu.commitStats0.committedInstType::IntMult          160      0.00%     74.19% # Class of committed instruction. (Count)
system.cpu.commitStats0.committedInstType::IntDiv     37750007      1.72%     75.91% # Class of committed instruction. (Count)
system.cpu.commitStats0.committedInstType::FloatAdd      8124644      0.37%     76.28% # Class of committed instruction. (Count)
system.cpu.commitStats0.committedInstType::FloatCmp            0      0.00%     76.28% # Class of committed instruction. (Count)
system.cpu.commitStats0.committedInstType::FloatCvt         1280      0.00%     76.28% # Class of committed instruction. (Count)
system.cpu.commitStats0.committedInstType::FloatMult            0      0.00%     76.28% # Class of committed instruction. (Count)
system.cpu.commitStats0.committedInstType::FloatMultAcc            0      0.00%     76.28% # Class of committed instruction. (Count)
system.cpu.commitStats0.committedInstType::FloatDiv            0      0.00%     76.28% # Class of committed instruction. (Count)
system.cpu.commitStats0.committedInstType::FloatMisc            0      0.00%     76.28% # Class of committed instruction. (Count)
system.cpu.commitStats0.committedInstType::FloatSqrt            0      0.00%     76.28% # Class of committed instruction. (Count)
system.cpu.commitStats0.committedInstType::SimdAdd         6582      0.00%     76.28% # Class of committed instruction. (Count)
system.cpu.commitStats0.committedInstType::SimdAddAcc            0      0.00%     76.28% # Class of committed instruction. (Count)
system.cpu.commitStats0.committedInstType::SimdAlu      8711763      0.40%     76.68% # Class of committed instruction. (Count)
system.cpu.commitStats0.committedInstType::SimdCmp            6      0.00%     76.68% # Class of committed instruction. (Count)
system.cpu.commitStats0.committedInstType::SimdCvt        13634      0.00%     76.68% # Class of committed instruction. (Count)
system.cpu.commitStats0.committedInstType::SimdMisc     10218883      0.47%     77.15% # Class of committed instruction. (Count)
system.cpu.commitStats0.committedInstType::SimdMult            0      0.00%     77.15% # Class of committed instruction. (Count)
system.cpu.commitStats0.committedInstType::SimdMultAcc            0      0.00%     77.15% # Class of committed instruction. (Count)
system.cpu.commitStats0.committedInstType::SimdMatMultAcc            0      0.00%     77.15% # Class of committed instruction. (Count)
system.cpu.commitStats0.committedInstType::SimdShift         2065      0.00%     77.15% # Class of committed instruction. (Count)
system.cpu.commitStats0.committedInstType::SimdShiftAcc            0      0.00%     77.15% # Class of committed instruction. (Count)
system.cpu.commitStats0.committedInstType::SimdDiv            0      0.00%     77.15% # Class of committed instruction. (Count)
system.cpu.commitStats0.committedInstType::SimdSqrt            0      0.00%     77.15% # Class of committed instruction. (Count)
system.cpu.commitStats0.committedInstType::SimdFloatAdd           70      0.00%     77.15% # Class of committed instruction. (Count)
system.cpu.commitStats0.committedInstType::SimdFloatAlu            0      0.00%     77.15% # Class of committed instruction. (Count)
system.cpu.commitStats0.committedInstType::SimdFloatCmp            0      0.00%     77.15% # Class of committed instruction. (Count)
system.cpu.commitStats0.committedInstType::SimdFloatCvt          349      0.00%     77.15% # Class of committed instruction. (Count)
system.cpu.commitStats0.committedInstType::SimdFloatDiv           35      0.00%     77.15% # Class of committed instruction. (Count)
system.cpu.commitStats0.committedInstType::SimdFloatMisc            0      0.00%     77.15% # Class of committed instruction. (Count)
system.cpu.commitStats0.committedInstType::SimdFloatMult           34      0.00%     77.15% # Class of committed instruction. (Count)
system.cpu.commitStats0.committedInstType::SimdFloatMultAcc            0      0.00%     77.15% # Class of committed instruction. (Count)
system.cpu.commitStats0.committedInstType::SimdFloatMatMultAcc            0      0.00%     77.15% # Class of committed instruction. (Count)
system.cpu.commitStats0.committedInstType::SimdFloatSqrt            0      0.00%     77.15% # Class of committed instruction. (Count)
system.cpu.commitStats0.committedInstType::SimdReduceAdd            0      0.00%     77.15% # Class of committed instruction. (Count)
system.cpu.commitStats0.committedInstType::SimdReduceAlu            0      0.00%     77.15% # Class of committed instruction. (Count)
system.cpu.commitStats0.committedInstType::SimdReduceCmp            0      0.00%     77.15% # Class of committed instruction. (Count)
system.cpu.commitStats0.committedInstType::SimdFloatReduceAdd            0      0.00%     77.15% # Class of committed instruction. (Count)
system.cpu.commitStats0.committedInstType::SimdFloatReduceCmp            0      0.00%     77.15% # Class of committed instruction. (Count)
system.cpu.commitStats0.committedInstType::SimdAes            0      0.00%     77.15% # Class of committed instruction. (Count)
system.cpu.commitStats0.committedInstType::SimdAesMix            0      0.00%     77.15% # Class of committed instruction. (Count)
system.cpu.commitStats0.committedInstType::SimdSha1Hash            0      0.00%     77.15% # Class of committed instruction. (Count)
system.cpu.commitStats0.committedInstType::SimdSha1Hash2            0      0.00%     77.15% # Class of committed instruction. (Count)
system.cpu.commitStats0.committedInstType::SimdSha256Hash            0      0.00%     77.15% # Class of committed instruction. (Count)
system.cpu.commitStats0.committedInstType::SimdSha256Hash2            0      0.00%     77.15% # Class of committed instruction. (Count)
system.cpu.commitStats0.committedInstType::SimdShaSigma2            0      0.00%     77.15% # Class of committed instruction. (Count)
system.cpu.commitStats0.committedInstType::SimdShaSigma3            0      0.00%     77.15% # Class of committed instruction. (Count)
system.cpu.commitStats0.committedInstType::SimdPredAlu            0      0.00%     77.15% # Class of committed instruction. (Count)
system.cpu.commitStats0.committedInstType::Matrix            0      0.00%     77.15% # Class of committed instruction. (Count)
system.cpu.commitStats0.committedInstType::MatrixMov            0      0.00%     77.15% # Class of committed instruction. (Count)
system.cpu.commitStats0.committedInstType::MatrixOP            0      0.00%     77.15% # Class of committed instruction. (Count)
system.cpu.commitStats0.committedInstType::MemRead    292603892     13.35%     90.50% # Class of committed instruction. (Count)
system.cpu.commitStats0.committedInstType::MemWrite    171469608      7.83%     98.33% # Class of committed instruction. (Count)
system.cpu.commitStats0.committedInstType::FloatMemRead      6480063      0.30%     98.62% # Class of committed instruction. (Count)
system.cpu.commitStats0.committedInstType::FloatMemWrite     30173772      1.38%    100.00% # Class of committed instruction. (Count)
system.cpu.commitStats0.committedInstType::IprAccess            0      0.00%    100.00% # Class of committed instruction. (Count)
system.cpu.commitStats0.committedInstType::InstPrefetch            0      0.00%    100.00% # Class of committed instruction. (Count)
system.cpu.commitStats0.committedInstType::SimdUnitStrideLoad            0      0.00%    100.00% # Class of committed instruction. (Count)
system.cpu.commitStats0.committedInstType::SimdUnitStrideStore            0      0.00%    100.00% # Class of committed instruction. (Count)
system.cpu.commitStats0.committedInstType::SimdUnitStrideMaskLoad            0      0.00%    100.00% # Class of committed instruction. (Count)
system.cpu.commitStats0.committedInstType::SimdUnitStrideMaskStore            0      0.00%    100.00% # Class of committed instruction. (Count)
system.cpu.commitStats0.committedInstType::SimdStridedLoad            0      0.00%    100.00% # Class of committed instruction. (Count)
system.cpu.commitStats0.committedInstType::SimdStridedStore            0      0.00%    100.00% # Class of committed instruction. (Count)
system.cpu.commitStats0.committedInstType::SimdIndexedLoad            0      0.00%    100.00% # Class of committed instruction. (Count)
system.cpu.commitStats0.committedInstType::SimdIndexedStore            0      0.00%    100.00% # Class of committed instruction. (Count)
system.cpu.commitStats0.committedInstType::SimdWholeRegisterLoad            0      0.00%    100.00% # Class of committed instruction. (Count)
system.cpu.commitStats0.committedInstType::SimdWholeRegisterStore            0      0.00%    100.00% # Class of committed instruction. (Count)
system.cpu.commitStats0.committedInstType::SimdUnitStrideFaultOnlyFirstLoad            0      0.00%    100.00% # Class of committed instruction. (Count)
system.cpu.commitStats0.committedInstType::SimdUnitStrideSegmentedLoad            0      0.00%    100.00% # Class of committed instruction. (Count)
system.cpu.commitStats0.committedInstType::SimdUnitStrideSegmentedStore            0      0.00%    100.00% # Class of committed instruction. (Count)
system.cpu.commitStats0.committedInstType::SimdExt            0      0.00%    100.00% # Class of committed instruction. (Count)
system.cpu.commitStats0.committedInstType::SimdFloatExt            0      0.00%    100.00% # Class of committed instruction. (Count)
system.cpu.commitStats0.committedInstType::SimdConfig            0      0.00%    100.00% # Class of committed instruction. (Count)
system.cpu.commitStats0.committedInstType::total   2191258170                       # Class of committed instruction. (Count)
system.cpu.commitStats0.committedControl::IsControl    235744405                       # Class of control type instructions committed (Count)
system.cpu.commitStats0.committedControl::IsDirectControl    208289496                       # Class of control type instructions committed (Count)
system.cpu.commitStats0.committedControl::IsIndirectControl     27454581                       # Class of control type instructions committed (Count)
system.cpu.commitStats0.committedControl::IsCondControl    179111317                       # Class of control type instructions committed (Count)
system.cpu.commitStats0.committedControl::IsUncondControl     56632760                       # Class of control type instructions committed (Count)
system.cpu.commitStats0.committedControl::IsCall     14924546                       # Class of control type instructions committed (Count)
system.cpu.commitStats0.committedControl::IsReturn     14924541                       # Class of control type instructions committed (Count)
system.cpu.decode.idleCycles                161411274                       # Number of cycles decode is idle (Cycle)
system.cpu.decode.blockedCycles             501811333                       # Number of cycles decode is blocked (Cycle)
system.cpu.decode.runCycles                 340826548                       # Number of cycles decode is running (Cycle)
system.cpu.decode.unblockCycles              28160789                       # Number of cycles decode is unblocking (Cycle)
system.cpu.decode.squashCycles                1298390                       # Number of cycles decode is squashing (Cycle)
system.cpu.decode.branchResolved             87086194                       # Number of times decode resolved a branch (Count)
system.cpu.decode.branchMispred                  1637                       # Number of times decode detected a branch misprediction (Count)
system.cpu.decode.decodedInsts             2389829090                       # Number of instructions handled by decode (Count)
system.cpu.decode.squashedInsts                  8579                       # Number of squashed instructions handled by decode (Count)
system.cpu.executeStats0.numInsts          2363802144                       # Number of executed instructions (Count)
system.cpu.executeStats0.numNop                     0                       # Number of nop insts executed (Count)
system.cpu.executeStats0.numBranches        254392255                       # Number of branches executed (Count)
system.cpu.executeStats0.numLoadInsts       312666523                       # Number of load instructions executed (Count)
system.cpu.executeStats0.numStoreInsts      216918554                       # Number of stores executed (Count)
system.cpu.executeStats0.instRate            2.286011                       # Inst execution rate ((Count/Cycle))
system.cpu.executeStats0.numCCRegReads     1134485584                       # Number of times the CC registers were read (Count)
system.cpu.executeStats0.numCCRegWrites     770410726                       # Number of times the CC registers were written (Count)
system.cpu.executeStats0.numFpRegReads       82524240                       # Number of times the floating registers were read (Count)
system.cpu.executeStats0.numFpRegWrites      43786013                       # Number of times the floating registers were written (Count)
system.cpu.executeStats0.numIntRegReads    2834805142                       # Number of times the integer registers were read (Count)
system.cpu.executeStats0.numIntRegWrites   1718998700                       # Number of times the integer registers were written (Count)
system.cpu.executeStats0.numMemRefs         529585077                       # Number of memory refs (Count)
system.cpu.executeStats0.numMiscRegReads   1063145536                       # Number of times the Misc registers were read (Count)
system.cpu.executeStats0.numMiscRegWrites          720                       # Number of times the Misc registers were written (Count)
system.cpu.executeStats0.numVecAluAccesses            0                       # Number of vector alu accesses (Count)
system.cpu.executeStats0.numDiscardedOps            0                       # Number of ops (including micro ops) which were discarded before commit (Count)
system.cpu.fetch.predictedBranches          117795858                       # Number of branches that fetch has predicted taken (Count)
system.cpu.fetch.cycles                     872642200                       # Number of cycles fetch has run and was not squashing or blocked (Cycle)
system.cpu.fetch.squashCycles                 2600012                       # Number of cycles fetch has spent squashing (Cycle)
system.cpu.fetch.miscStallCycles                  473                       # Number of cycles fetch has spent waiting on interrupts, or bad addresses, or out of MSHRs (Cycle)
system.cpu.fetch.pendingTrapStallCycles          3819                       # Number of stall cycles due to pending traps (Cycle)
system.cpu.fetch.cacheLines                 198781283                       # Number of cache lines fetched (Count)
[...]
system.mem_ctrl.dram.bytesWritten::total        44736                       # Number of bytes written to this memory (Byte)
system.mem_ctrl.dram.numReads::cpu.inst          1247                       # Number of read requests responded to by this memory (Count)
system.mem_ctrl.dram.numReads::cpu.data         26105                       # Number of read requests responded to by this memory (Count)
system.mem_ctrl.dram.numReads::total            27352                       # Number of read requests responded to by this memory (Count)
system.mem_ctrl.dram.numWrites::writebacks          699                       # Number of write requests responded to by this memory (Count)
system.mem_ctrl.dram.numWrites::total             699                       # Number of write requests responded to by this memory (Count)
system.mem_ctrl.dram.bwRead::cpu.inst       122828213                       # Total read bandwidth from this memory ((Byte/Second))
system.mem_ctrl.dram.bwRead::cpu.data      2571315561                       # Total read bandwidth from this memory ((Byte/Second))
system.mem_ctrl.dram.bwRead::total         2694143775                       # Total read bandwidth from this memory ((Byte/Second))
system.mem_ctrl.dram.bwInstRead::cpu.inst    122828213                       # Instruction read bandwidth from this memory ((Byte/Second))
system.mem_ctrl.dram.bwInstRead::total      122828213                       # Instruction read bandwidth from this memory ((Byte/Second))
system.mem_ctrl.dram.bwWrite::writebacks     68850779                       # Write bandwidth from this memory ((Byte/Second))
system.mem_ctrl.dram.bwWrite::total          68850779                       # Write bandwidth from this memory ((Byte/Second))
system.mem_ctrl.dram.bwTotal::writebacks     68850779                       # Total bandwidth to/from this memory ((Byte/Second))
system.mem_ctrl.dram.bwTotal::cpu.inst      122828213                       # Total bandwidth to/from this memory ((Byte/Second))
system.mem_ctrl.dram.bwTotal::cpu.data     2571315561                       # Total bandwidth to/from this memory ((Byte/Second))
system.mem_ctrl.dram.bwTotal::total        2762994553                       # Total bandwidth to/from this memory ((Byte/Second))
system.mem_ctrl.dram.readBursts                 27316                       # Number of DRAM read bursts (Count)
system.mem_ctrl.dram.writeBursts                  700                       # Number of DRAM write bursts (Count)
system.mem_ctrl.dram.perBankRdBursts::0          1644                       # Per bank write bursts (Count)
system.mem_ctrl.dram.perBankRdBursts::1          1645                       # Per bank write bursts (Count)
system.mem_ctrl.dram.perBankRdBursts::2          1778                       # Per bank write bursts (Count)
system.mem_ctrl.dram.perBankRdBursts::3          1709                       # Per bank write bursts (Count)
system.mem_ctrl.dram.perBankRdBursts::4          1646                       # Per bank write bursts (Count)
system.mem_ctrl.dram.perBankRdBursts::5          1682                       # Per bank write bursts (Count)
system.mem_ctrl.dram.perBankRdBursts::6          1688                       # Per bank write bursts (Count)
system.mem_ctrl.dram.perBankRdBursts::7          1643                       # Per bank write bursts (Count)
system.mem_ctrl.dram.perBankRdBursts::8          1661                       # Per bank write bursts (Count)
system.mem_ctrl.dram.perBankRdBursts::9          1789                       # Per bank write bursts (Count)
system.mem_ctrl.dram.perBankRdBursts::10         1877                       # Per bank write bursts (Count)
system.mem_ctrl.dram.perBankRdBursts::11         1845                       # Per bank write bursts (Count)
system.mem_ctrl.dram.perBankRdBursts::12         1688                       # Per bank write bursts (Count)
system.mem_ctrl.dram.perBankRdBursts::13         1628                       # Per bank write bursts (Count)
system.mem_ctrl.dram.perBankRdBursts::14         1736                       # Per bank write bursts (Count)
system.mem_ctrl.dram.perBankRdBursts::15         1657                       # Per bank write bursts (Count)
system.mem_ctrl.dram.perBankWrBursts::0             2                       # Per bank write bursts (Count)
system.mem_ctrl.dram.perBankWrBursts::1             0                       # Per bank write bursts (Count)
system.mem_ctrl.dram.perBankWrBursts::2             9                       # Per bank write bursts (Count)
system.mem_ctrl.dram.perBankWrBursts::3             1                       # Per bank write bursts (Count)
system.mem_ctrl.dram.perBankWrBursts::4             0                       # Per bank write bursts (Count)
system.mem_ctrl.dram.perBankWrBursts::5             6                       # Per bank write bursts (Count)
system.mem_ctrl.dram.perBankWrBursts::6             5                       # Per bank write bursts (Count)
system.mem_ctrl.dram.perBankWrBursts::7             2                       # Per bank write bursts (Count)
system.mem_ctrl.dram.perBankWrBursts::8            10                       # Per bank write bursts (Count)
system.mem_ctrl.dram.perBankWrBursts::9             5                       # Per bank write bursts (Count)
system.mem_ctrl.dram.perBankWrBursts::10           52                       # Per bank write bursts (Count)
system.mem_ctrl.dram.perBankWrBursts::11           76                       # Per bank write bursts (Count)
system.mem_ctrl.dram.perBankWrBursts::12          136                       # Per bank write bursts (Count)
system.mem_ctrl.dram.perBankWrBursts::13          128                       # Per bank write bursts (Count)
system.mem_ctrl.dram.perBankWrBursts::14          160                       # Per bank write bursts (Count)
system.mem_ctrl.dram.perBankWrBursts::15          108                       # Per bank write bursts (Count)
system.mem_ctrl.dram.totQLat                135018500                       # Total ticks spent queuing (Tick)
system.mem_ctrl.dram.totBusLat              136580000                       # Total ticks spent in databus transfers (Tick)
system.mem_ctrl.dram.totMemAccLat           647193500                       # Total ticks spent from burst creation until serviced by the DRAM (Tick)
system.mem_ctrl.dram.avgQLat                  4942.84                       # Average queueing delay per DRAM burst ((Tick/Count))
system.mem_ctrl.dram.avgBusLat                5000.00                       # Average bus latency per DRAM burst ((Tick/Count))
system.mem_ctrl.dram.avgMemAccLat            23692.84                       # Average memory access latency per DRAM burst ((Tick/Count))
system.mem_ctrl.dram.readRowHits                24884                       # Number of row buffer hits during reads (Count)
system.mem_ctrl.dram.writeRowHits                 604                       # Number of row buffer hits during writes (Count)
system.mem_ctrl.dram.readRowHitRate             91.10                       # Row buffer hit rate for reads (Ratio)
system.mem_ctrl.dram.writeRowHitRate            86.29                       # Row buffer hit rate for writes (Ratio)
system.mem_ctrl.dram.bytesPerActivate::samples         2530                       # Bytes accessed per row activation (Byte)
system.mem_ctrl.dram.bytesPerActivate::mean   708.755731                       # Bytes accessed per row activation (Byte)
system.mem_ctrl.dram.bytesPerActivate::gmean   479.340971                       # Bytes accessed per row activation (Byte)
system.mem_ctrl.dram.bytesPerActivate::stdev   416.680343                       # Bytes accessed per row activation (Byte)
system.mem_ctrl.dram.bytesPerActivate::0-127          396     15.65%     15.65% # Bytes accessed per row activation (Byte)
system.mem_ctrl.dram.bytesPerActivate::128-255          310     12.25%     27.91% # Bytes accessed per row activation (Byte)
system.mem_ctrl.dram.bytesPerActivate::256-383           83      3.28%     31.19% # Bytes accessed per row activation (Byte)
system.mem_ctrl.dram.bytesPerActivate::384-511           44      1.74%     32.92% # Bytes accessed per row activation (Byte)
system.mem_ctrl.dram.bytesPerActivate::512-639           88      3.48%     36.40% # Bytes accessed per row activation (Byte)
system.mem_ctrl.dram.bytesPerActivate::640-767           29      1.15%     37.55% # Bytes accessed per row activation (Byte)
system.mem_ctrl.dram.bytesPerActivate::768-895           12      0.47%     38.02% # Bytes accessed per row activation (Byte)
system.mem_ctrl.dram.bytesPerActivate::896-1023            8      0.32%     38.34% # Bytes accessed per row activation (Byte)
system.mem_ctrl.dram.bytesPerActivate::1024-1151         1560     61.66%    100.00% # Bytes accessed per row activation (Byte)
system.mem_ctrl.dram.bytesPerActivate::total         2530                       # Bytes accessed per row activation (Byte)
system.mem_ctrl.dram.dramBytesRead            1748224                       # Total bytes read (Byte)
system.mem_ctrl.dram.dramBytesWritten           44800                       # Total bytes written (Byte)
system.mem_ctrl.dram.avgRdBW              2690.597812                       # Average DRAM read bandwidth in MiBytes/s ((Byte/Second))
system.mem_ctrl.dram.avgWrBW                68.949278                       # Average DRAM write bandwidth in MiBytes/s ((Byte/Second))
system.mem_ctrl.dram.peakBW                  12800.00                       # Theoretical peak bandwidth in MiByte/s ((Byte/Second))
system.mem_ctrl.dram.busUtil                    21.56                       # Data bus utilization in percentage (Ratio)
system.mem_ctrl.dram.busUtilRead                21.02                       # Data bus utilization in percentage for reads (Ratio)
system.mem_ctrl.dram.busUtilWrite                0.54                       # Data bus utilization in percentage for writes (Ratio)
system.mem_ctrl.dram.pageHitRate                90.98                       # Row buffer hit rate, read and write combined (Ratio)
system.mem_ctrl.dram.power_state.pwrStateResidencyTicks::UNDEFINED    649753000                       # Cumulative time (in ticks) in various power states (Tick)
system.mem_ctrl.dram.rank0.actEnergy          8446620                       # Energy for activate commands per rank (pJ) (Joule)
system.mem_ctrl.dram.rank0.preEnergy          4489485                       # Energy for precharge commands per rank (pJ) (Joule)
system.mem_ctrl.dram.rank0.readEnergy        95925900                       # Energy for read commands per rank (pJ) (Joule)
system.mem_ctrl.dram.rank0.writeEnergy         130500                       # Energy for write commands per rank (pJ) (Joule)
system.mem_ctrl.dram.rank0.refreshEnergy 51629760.000000                       # Energy for refresh commands per rank (pJ) (Joule)
system.mem_ctrl.dram.rank0.actBackEnergy    182753970                       # Energy for active background per rank (pJ) (Joule)
system.mem_ctrl.dram.rank0.preBackEnergy     95607360                       # Energy for precharge background per rank (pJ) (Joule)
system.mem_ctrl.dram.rank0.actPowerDownEnergy            0                       # Energy for active power-down per rank (pJ) (Joule)
system.mem_ctrl.dram.rank0.prePowerDownEnergy            0                       # Energy for precharge power-down per rank (pJ) (Joule)
system.mem_ctrl.dram.rank0.selfRefreshEnergy            0                       # Energy for self refresh per rank (pJ) (Joule)
system.mem_ctrl.dram.rank0.totalEnergy      438983595                       # Total energy per rank (pJ) (Joule)
system.mem_ctrl.dram.rank0.averagePower    675.616111                       # Core power per rank (mW) (Watt)
system.mem_ctrl.dram.rank0.totalIdleTime            0                       # Total Idle time Per DRAM Rank (Tick)
system.mem_ctrl.dram.rank0.pwrStateTime::IDLE    240105250                       # Time in different power states (Tick)
system.mem_ctrl.dram.rank0.pwrStateTime::REF     21840000                       # Time in different power states (Tick)
system.mem_ctrl.dram.rank0.pwrStateTime::SREF            0                       # Time in different power states (Tick)
system.mem_ctrl.dram.rank0.pwrStateTime::PRE_PDN            0                       # Time in different power states (Tick)
system.mem_ctrl.dram.rank0.pwrStateTime::ACT    387807750                       # Time in different power states (Tick)
system.mem_ctrl.dram.rank0.pwrStateTime::ACT_PDN            0                       # Time in different power states (Tick)
system.mem_ctrl.dram.rank1.actEnergy          9603300                       # Energy for activate commands per rank (pJ) (Joule)
system.mem_ctrl.dram.rank1.preEnergy          5111865                       # Energy for precharge commands per rank (pJ) (Joule)
system.mem_ctrl.dram.rank1.readEnergy        99110340                       # Energy for read commands per rank (pJ) (Joule)
system.mem_ctrl.dram.rank1.writeEnergy        3523500                       # Energy for write commands per rank (pJ) (Joule)
system.mem_ctrl.dram.rank1.refreshEnergy 51629760.000000                       # Energy for refresh commands per rank (pJ) (Joule)
system.mem_ctrl.dram.rank1.actBackEnergy    183964650                       # Energy for active background per rank (pJ) (Joule)
system.mem_ctrl.dram.rank1.preBackEnergy     94587840                       # Energy for precharge background per rank (pJ) (Joule)
system.mem_ctrl.dram.rank1.actPowerDownEnergy            0                       # Energy for active power-down per rank (pJ) (Joule)
system.mem_ctrl.dram.rank1.prePowerDownEnergy            0                       # Energy for precharge power-down per rank (pJ) (Joule)
system.mem_ctrl.dram.rank1.selfRefreshEnergy            0                       # Energy for self refresh per rank (pJ) (Joule)
system.mem_ctrl.dram.rank1.totalEnergy      447531255                       # Total energy per rank (pJ) (Joule)
system.mem_ctrl.dram.rank1.averagePower    688.771356                       # Core power per rank (mW) (Watt)
system.mem_ctrl.dram.rank1.totalIdleTime            0                       # Total Idle time Per DRAM Rank (Tick)
system.mem_ctrl.dram.rank1.pwrStateTime::IDLE    237860500                       # Time in different power states (Tick)
system.mem_ctrl.dram.rank1.pwrStateTime::REF     21840000                       # Time in different power states (Tick)
system.mem_ctrl.dram.rank1.pwrStateTime::SREF            0                       # Time in different power states (Tick)
system.mem_ctrl.dram.rank1.pwrStateTime::PRE_PDN            0                       # Time in different power states (Tick)
system.mem_ctrl.dram.rank1.pwrStateTime::ACT    390052500                       # Time in different power states (Tick)
system.mem_ctrl.dram.rank1.pwrStateTime::ACT_PDN            0                       # Time in different power states (Tick)
system.mem_ctrl.power_state.pwrStateResidencyTicks::UNDEFINED    649753000                       # Cumulative time (in ticks) in various power states (Tick)
system.membus.transDist::ReadResp               27266                       # Transaction distribution (Count)
system.membus.transDist::WritebackDirty           699                       # Transaction distribution (Count)
system.membus.transDist::CleanEvict             26717                       # Transaction distribution (Count)
system.membus.transDist::ReadExReq                 87                       # Transaction distribution (Count)
system.membus.transDist::ReadExResp                87                       # Transaction distribution (Count)
system.membus.transDist::ReadSharedReq          27265                       # Transaction distribution (Count)
system.membus.pktCount_system.l2_cache.mem_side_port::system.mem_ctrl.port        82121                       # Packet count per connected requestor and responder (Count)
system.membus.pktCount_system.l2_cache.mem_side_port::total        82121                       # Packet count per connected requestor and responder (Count)
system.membus.pktCount::total                   82121                       # Packet count per connected requestor and responder (Count)
system.membus.pktSize_system.l2_cache.mem_side_port::system.mem_ctrl.port      1795328                       # Cumulative packet size per connected requestor and responder (Byte)
system.membus.pktSize_system.l2_cache.mem_side_port::total      1795328                       # Cumulative packet size per connected requestor and responder (Byte)
system.membus.pktSize::total                  1795328                       # Cumulative packet size per connected requestor and responder (Byte)
system.membus.snoops                                0                       # Total snoops (Count)
system.membus.snoopTraffic                          0                       # Total snoop traffic (Byte)
system.membus.snoopFanout::samples              27352                       # Request fanout histogram (Count)
system.membus.snoopFanout::mean                     0                       # Request fanout histogram (Count)
system.membus.snoopFanout::stdev                    0                       # Request fanout histogram (Count)
system.membus.snoopFanout::underflows               0      0.00%      0.00% # Request fanout histogram (Count)
system.membus.snoopFanout::0                    27352    100.00%    100.00% # Request fanout histogram (Count)
system.membus.snoopFanout::1                        0      0.00%    100.00% # Request fanout histogram (Count)
system.membus.snoopFanout::overflows                0      0.00%    100.00% # Request fanout histogram (Count)
system.membus.snoopFanout::min_value                0                       # Request fanout histogram (Count)
system.membus.snoopFanout::max_value                0                       # Request fanout histogram (Count)
system.membus.snoopFanout::total                27352                       # Request fanout histogram (Count)
system.membus.power_state.pwrStateResidencyTicks::UNDEFINED    649753000                       # Cumulative time (in ticks) in various power states (Tick)
system.membus.reqLayer2.occupancy            57564000                       # Layer occupancy (ticks) (Tick)
system.membus.reqLayer2.utilization               0.1                       # Layer utilization (Ratio)
system.membus.respLayer2.occupancy          143423500                       # Layer occupancy (ticks) (Tick)
system.membus.respLayer2.utilization              0.2                       # Layer utilization (Ratio)
system.membus.snoop_filter.totRequests          54768                       # Total number of requests made to the snoop filter. (Count)
system.membus.snoop_filter.hitSingleRequests        27416                       # Number of requests hitting in the snoop filter with a single holder of the requested data. (Count)
system.membus.snoop_filter.hitMultiRequests            0                       # Number of requests hitting in the snoop filter with multiple (>1) holders of the requested data. (Count)
system.membus.snoop_filter.totSnoops                0                       # Total number of snoops made to the snoop filter. (Count)
system.membus.snoop_filter.hitSingleSnoops            0                       # Number of snoops hitting in the snoop filter with a single holder of the requested data. (Count)
system.membus.snoop_filter.hitMultiSnoops            0                       # Number of snoops hitting in the snoop filter with multiple (>1) holders of the requested data. (Count)
system.workload.inst.arm                            0                       # number of arm instructions executed (Count)
system.workload.inst.quiesce                        0                       # number of quiesce instructions executed (Count)

---------- End Simulation Statistics   ----------
