
---------- Begin Simulation Statistics ----------
simSeconds                                   1.196476                       # Number of seconds simulated (Second)
simTicks                                 1196475822000                       # Number of ticks simulated (Tick)
finalTick                                1196475822000                       # Number of ticks from beginning of simulation (restored from checkpoints and never reset) (Tick)
simFreq                                  1000000000000                       # The number of ticks per simulated second ((Tick/Second))
hostSeconds                                   1595.02                       # Real time elapsed on the host (Second)
hostTickRate                                750130491                       # The number of ticks simulated per host second (ticks/s) ((Tick/Second))
hostMemory                                    8622344                       # Number of bytes of host memory used (Byte)
simInsts                                    332032354                       # Number of instructions simulated (Count)
simOps                                      597352735                       # Number of ops (including micro ops) simulated (Count)
hostInstRate                                   208167                       # Simulator instruction rate (inst/s) ((Count/Second))
hostOpRate                                     374510                       # Simulator op (including micro ops) rate (op/s) ((Count/Second))
system.clk_domain.clock                          1000                       # Clock period in ticks (Tick)
system.clk_domain.voltage_domain.voltage            1                       # Voltage in Volts (Volt)
system.cpu.numCycles                       1196475822                       # Number of cpu cycles simulated (Cycle)
system.cpu.cpi                               3.603492                       # CPI: cycles per instruction (core level) ((Cycle/Count))
system.cpu.ipc                               0.277509                       # IPC: instructions per cycle (core level) ((Count/Cycle))
system.cpu.numWorkItemsStarted                      0                       # Number of work items this cpu started (Count)
system.cpu.numWorkItemsCompleted                    0                       # Number of work items this cpu completed (Count)
system.cpu.branchPred.lookups_0::NoBranch            0                       # Number of BP lookups (Count)
system.cpu.branchPred.lookups_0::Return             0                       # Number of BP lookups (Count)
system.cpu.branchPred.lookups_0::CallDirect            0                       # Number of BP lookups (Count)
system.cpu.branchPred.lookups_0::CallIndirect            0                       # Number of BP lookups (Count)
system.cpu.branchPred.lookups_0::DirectCond            0                       # Number of BP lookups (Count)
system.cpu.branchPred.lookups_0::DirectUncond            0                       # Number of BP lookups (Count)
system.cpu.branchPred.lookups_0::IndirectCond            0                       # Number of BP lookups (Count)
system.cpu.branchPred.lookups_0::IndirectUncond            0                       # Number of BP lookups (Count)
system.cpu.branchPred.lookups_0::total              0                       # Number of BP lookups (Count)
system.cpu.branchPred.squashes_0::NoBranch            0                       # Number of branches that got squashed (completely removed) as an earlier branch was mispredicted. (Count)
system.cpu.branchPred.squashes_0::Return            0                       # Number of branches that got squashed (completely removed) as an earlier branch was mispredicted. (Count)
system.cpu.branchPred.squashes_0::CallDirect            0                       # Number of branches that got squashed (completely removed) as an earlier branch was mispredicted. (Count)
system.cpu.branchPred.squashes_0::CallIndirect            0                       # Number of branches that got squashed (completely removed) as an earlier branch was mispredicted. (Count)
system.cpu.branchPred.squashes_0::DirectCond            0                       # Number of branches that got squashed (completely removed) as an earlier branch was mispredicted. (Count)
system.cpu.branchPred.squashes_0::DirectUncond            0                       # Number of branches that got squashed (completely removed) as an earlier branch was mispredicted. (Count)
system.cpu.branchPred.squashes_0::IndirectCond            0                       # Number of branches that got squashed (completely removed) as an earlier branch was mispredicted. (Count)
system.cpu.branchPred.squashes_0::IndirectUncond            0                       # Number of branches that got squashed (completely removed) as an earlier branch was mispredicted. (Count)
system.cpu.branchPred.squashes_0::total             0                       # Number of branches that got squashed (completely removed) as an earlier branch was mispredicted. (Count)
system.cpu.branchPred.corrected_0::NoBranch            0                       # Number of branches that got corrected but not yet commited. Branches get corrected by decode or after execute. Also a branch misprediction can be detected out-of-order. Therefore, a corrected branch might not end up beeing committed in case an even earlier branch was mispredicted (Count)
system.cpu.branchPred.corrected_0::Return            0                       # Number of branches that got corrected but not yet commited. Branches get corrected by decode or after execute. Also a branch misprediction can be detected out-of-order. Therefore, a corrected branch might not end up beeing committed in case an even earlier branch was mispredicted (Count)
system.cpu.branchPred.corrected_0::CallDirect            0                       # Number of branches that got corrected but not yet commited. Branches get corrected by decode or after execute. Also a branch misprediction can be detected out-of-order. Therefore, a corrected branch might not end up beeing committed in case an even earlier branch was mispredicted (Count)
system.cpu.branchPred.corrected_0::CallIndirect            0                       # Number of branches that got corrected but not yet commited. Branches get corrected by decode or after execute. Also a branch misprediction can be detected out-of-order. Therefore, a corrected branch might not end up beeing committed in case an even earlier branch was mispredicted (Count)
system.cpu.branchPred.corrected_0::DirectCond            0                       # Number of branches that got corrected but not yet commited. Branches get corrected by decode or after execute. Also a branch misprediction can be detected out-of-order. Therefore, a corrected branch might not end up beeing committed in case an even earlier branch was mispredicted (Count)
system.cpu.branchPred.corrected_0::DirectUncond            0                       # Number of branches that got corrected but not yet commited. Branches get corrected by decode or after execute. Also a branch misprediction can be detected out-of-order. Therefore, a corrected branch might not end up beeing committed in case an even earlier branch was mispredicted (Count)
system.cpu.branchPred.corrected_0::IndirectCond            0                       # Number of branches that got corrected but not yet commited. Branches get corrected by decode or after execute. Also a branch misprediction can be detected out-of-order. Therefore, a corrected branch might not end up beeing committed in case an even earlier branch was mispredicted (Count)
system.cpu.branchPred.corrected_0::IndirectUncond            0                       # Number of branches that got corrected but not yet commited. Branches get corrected by decode or after execute. Also a branch misprediction can be detected out-of-order. Therefore, a corrected branch might not end up beeing committed in case an even earlier branch was mispredicted (Count)
system.cpu.branchPred.corrected_0::total            0                       # Number of branches that got corrected but not yet commited. Branches get corrected by decode or after execute. Also a branch misprediction can be detected out-of-order. Therefore, a corrected branch might not end up beeing committed in case an even earlier branch was mispredicted (Count)
system.cpu.branchPred.earlyResteers_0::NoBranch            0                       # Number of branches that got redirected after decode. (Count)
system.cpu.branchPred.earlyResteers_0::Return            0                       # Number of branches that got redirected after decode. (Count)
system.cpu.branchPred.earlyResteers_0::CallDirect            0                       # Number of branches that got redirected after decode. (Count)
system.cpu.branchPred.earlyResteers_0::CallIndirect            0                       # Number of branches that got redirected after decode. (Count)
system.cpu.branchPred.earlyResteers_0::DirectCond            0                       # Number of branches that got redirected after decode. (Count)
system.cpu.branchPred.earlyResteers_0::DirectUncond            0                       # Number of branches that got redirected after decode. (Count)
system.cpu.branchPred.earlyResteers_0::IndirectCond            0                       # Number of branches that got redirected after decode. (Count)
system.cpu.branchPred.earlyResteers_0::IndirectUncond            0                       # Number of branches that got redirected after decode. (Count)
system.cpu.branchPred.earlyResteers_0::total            0                       # Number of branches that got redirected after decode. (Count)
system.cpu.branchPred.committed_0::NoBranch            0                       # Number of branches finally committed  (Count)
system.cpu.branchPred.committed_0::Return            0                       # Number of branches finally committed  (Count)
system.cpu.branchPred.committed_0::CallDirect            0                       # Number of branches finally committed  (Count)
system.cpu.branchPred.committed_0::CallIndirect            0                       # Number of branches finally committed  (Count)
system.cpu.branchPred.committed_0::DirectCond            0                       # Number of branches finally committed  (Count)
system.cpu.branchPred.committed_0::DirectUncond            0                       # Number of branches finally committed  (Count)
system.cpu.branchPred.committed_0::IndirectCond            0                       # Number of branches finally committed  (Count)
system.cpu.branchPred.committed_0::IndirectUncond            0                       # Number of branches finally committed  (Count)
system.cpu.branchPred.committed_0::total            0                       # Number of branches finally committed  (Count)
system.cpu.branchPred.mispredicted_0::NoBranch            0                       # Number of committed branches that were mispredicted. (Count)
system.cpu.branchPred.mispredicted_0::Return            0                       # Number of committed branches that were mispredicted. (Count)
system.cpu.branchPred.mispredicted_0::CallDirect            0                       # Number of committed branches that were mispredicted. (Count)
system.cpu.branchPred.mispredicted_0::CallIndirect            0                       # Number of committed branches that were mispredicted. (Count)
system.cpu.branchPred.mispredicted_0::DirectCond            0                       # Number of committed branches that were mispredicted. (Count)
system.cpu.branchPred.mispredicted_0::DirectUncond            0                       # Number of committed branches that were mispredicted. (Count)
system.cpu.branchPred.mispredicted_0::IndirectCond            0                       # Number of committed branches that were mispredicted. (Count)
system.cpu.branchPred.mispredicted_0::IndirectUncond            0                       # Number of committed branches that were mispredicted. (Count)
system.cpu.branchPred.mispredicted_0::total            0                       # Number of committed branches that were mispredicted. (Count)
system.cpu.branchPred.targetProvider_0::NoTarget            0                       # The component providing the target for taken branches (Count)
system.cpu.branchPred.targetProvider_0::BTB            0                       # The component providing the target for taken branches (Count)
system.cpu.branchPred.targetProvider_0::RAS            0                       # The component providing the target for taken branches (Count)
system.cpu.branchPred.targetProvider_0::Indirect            0                       # The component providing the target for taken branches (Count)
system.cpu.branchPred.targetProvider_0::total            0                       # The component providing the target for taken branches (Count)
system.cpu.branchPred.targetWrong_0::NoBranch            0                       # Number of branches where the target was incorrect or not available at prediction time. (Count)
system.cpu.branchPred.targetWrong_0::Return            0                       # Number of branches where the target was incorrect or not available at prediction time. (Count)
system.cpu.branchPred.targetWrong_0::CallDirect            0                       # Number of branches where the target was incorrect or not available at prediction time. (Count)
system.cpu.branchPred.targetWrong_0::CallIndirect            0                       # Number of branches where the target was incorrect or not available at prediction time. (Count)
system.cpu.branchPred.targetWrong_0::DirectCond            0                       # Number of branches where the target was incorrect or not available at prediction time. (Count)
system.cpu.branchPred.targetWrong_0::DirectUncond            0                       # Number of branches where the target was incorrect or not available at prediction time. (Count)
system.cpu.branchPred.targetWrong_0::IndirectCond            0                       # Number of branches where the target was incorrect or not available at prediction time. (Count)
system.cpu.branchPred.targetWrong_0::IndirectUncond            0                       # Number of branches where the target was incorrect or not available at prediction time. (Count)
system.cpu.branchPred.targetWrong_0::total            0                       # Number of branches where the target was incorrect or not available at prediction time. (Count)
system.cpu.branchPred.condPredicted                 0                       # Number of conditional branches predicted (Count)
system.cpu.branchPred.condPredictedTaken            0                       # Number of conditional branches predicted as taken (Count)
system.cpu.branchPred.condIncorrect                 0                       # Number of conditional branches incorrect (Count)
system.cpu.branchPred.predTakenBTBMiss              0                       # Number of branches predicted taken but missed in BTB (Count)
system.cpu.branchPred.NotTakenMispredicted            0                       # Number branches predicted 'not taken' but turned out to be taken (Count)
system.cpu.branchPred.TakenMispredicted             0                       # Number branches predicted taken but are actually not taken (Count)
system.cpu.branchPred.BTBLookups                    0                       # Number of BTB lookups (Count)
system.cpu.branchPred.BTBUpdates                    0                       # Number of BTB updates (Count)
system.cpu.branchPred.BTBHits                       0                       # Number of BTB hits (Count)
system.cpu.branchPred.BTBHitRatio                 nan                       # BTB Hit Ratio (Ratio)
system.cpu.branchPred.BTBMispredicted               0                       # Number BTB mispredictions. No target found or target wrong (Count)
system.cpu.branchPred.indirectLookups               0                       # Number of indirect predictor lookups. (Count)
system.cpu.branchPred.indirectHits                  0                       # Number of indirect target hits. (Count)
system.cpu.branchPred.indirectMisses                0                       # Number of indirect misses. (Count)
system.cpu.branchPred.indirectMispredicted            0                       # Number of mispredicted indirect branches. (Count)
system.cpu.branchPred.btb.lookups::NoBranch            0                       # Number of BTB lookups (Count)
system.cpu.branchPred.btb.lookups::Return            0                       # Number of BTB lookups (Count)
system.cpu.branchPred.btb.lookups::CallDirect            0                       # Number of BTB lookups (Count)
system.cpu.branchPred.btb.lookups::CallIndirect            0                       # Number of BTB lookups (Count)
system.cpu.branchPred.btb.lookups::DirectCond            0                       # Number of BTB lookups (Count)
system.cpu.branchPred.btb.lookups::DirectUncond            0                       # Number of BTB lookups (Count)
system.cpu.branchPred.btb.lookups::IndirectCond            0                       # Number of BTB lookups (Count)
system.cpu.branchPred.btb.lookups::IndirectUncond            0                       # Number of BTB lookups (Count)
system.cpu.branchPred.btb.lookups::total            0                       # Number of BTB lookups (Count)
system.cpu.branchPred.btb.misses::NoBranch            0                       # Number of BTB misses (Count)
system.cpu.branchPred.btb.misses::Return            0                       # Number of BTB misses (Count)
system.cpu.branchPred.btb.misses::CallDirect            0                       # Number of BTB misses (Count)
system.cpu.branchPred.btb.misses::CallIndirect            0                       # Number of BTB misses (Count)
system.cpu.branchPred.btb.misses::DirectCond            0                       # Number of BTB misses (Count)
system.cpu.branchPred.btb.misses::DirectUncond            0                       # Number of BTB misses (Count)
system.cpu.branchPred.btb.misses::IndirectCond            0                       # Number of BTB misses (Count)
system.cpu.branchPred.btb.misses::IndirectUncond            0                       # Number of BTB misses (Count)
system.cpu.branchPred.btb.misses::total             0                       # Number of BTB misses (Count)
system.cpu.branchPred.btb.updates::NoBranch            0                       # Number of BTB updates (Count)
system.cpu.branchPred.btb.updates::Return            0                       # Number of BTB updates (Count)
system.cpu.branchPred.btb.updates::CallDirect            0                       # Number of BTB updates (Count)
system.cpu.branchPred.btb.updates::CallIndirect            0                       # Number of BTB updates (Count)
system.cpu.branchPred.btb.updates::DirectCond            0                       # Number of BTB updates (Count)
system.cpu.branchPred.btb.updates::DirectUncond            0                       # Number of BTB updates (Count)
system.cpu.branchPred.btb.updates::IndirectCond            0                       # Number of BTB updates (Count)
system.cpu.branchPred.btb.updates::IndirectUncond            0                       # Number of BTB updates (Count)
system.cpu.branchPred.btb.updates::total            0                       # Number of BTB updates (Count)
system.cpu.branchPred.btb.mispredict::NoBranch            0                       # Number of BTB mispredictions. No target found or target wrong. (Count)
system.cpu.branchPred.btb.mispredict::Return            0                       # Number of BTB mispredictions. No target found or target wrong. (Count)
system.cpu.branchPred.btb.mispredict::CallDirect            0                       # Number of BTB mispredictions. No target found or target wrong. (Count)
system.cpu.branchPred.btb.mispredict::CallIndirect            0                       # Number of BTB mispredictions. No target found or target wrong. (Count)
system.cpu.branchPred.btb.mispredict::DirectCond            0                       # Number of BTB mispredictions. No target found or target wrong. (Count)
system.cpu.branchPred.btb.mispredict::DirectUncond            0                       # Number of BTB mispredictions. No target found or target wrong. (Count)
system.cpu.branchPred.btb.mispredict::IndirectCond            0                       # Number of BTB mispredictions. No target found or target wrong. (Count)
system.cpu.branchPred.btb.mispredict::IndirectUncond            0                       # Number of BTB mispredictions. No target found or target wrong. (Count)
system.cpu.branchPred.btb.mispredict::total            0                       # Number of BTB mispredictions. No target found or target wrong. (Count)
system.cpu.branchPred.btb.power_state.pwrStateResidencyTicks::UNDEFINED 1196475822000                       # Cumulative time (in ticks) in various power states (Tick)
system.cpu.branchPred.indirectBranchPred.lookups            0                       # Number of lookups (Count)
system.cpu.branchPred.indirectBranchPred.hits            0                       # Number of hits of a tag (Count)
system.cpu.branchPred.indirectBranchPred.misses            0                       # Number of misses (Count)
system.cpu.branchPred.indirectBranchPred.targetRecords            0                       # Number of targets that where recorded/installed in the cache (Count)
system.cpu.branchPred.indirectBranchPred.indirectRecords            0                       # Number of indirect branches/calls recorded in the indirect hist (Count)
system.cpu.branchPred.indirectBranchPred.speculativeOverflows            0                       # Number of times more than the allowed capacity for speculative branches/calls where in flight and destroy the path history (Count)
system.cpu.branchPred.ras.pushes                    0                       # Number of times a PC was pushed onto the RAS (Count)
system.cpu.branchPred.ras.pops                      0                       # Number of times a PC was poped from the RAS (Count)
system.cpu.branchPred.ras.squashes                  0                       # Number of times the stack operation was squashed due to wrong speculation. (Count)
system.cpu.branchPred.ras.used                      0                       # Number of times the RAS is the provider (Count)
system.cpu.branchPred.ras.correct                   0                       # Number of times the RAS is the provider and the prediction is correct (Count)
system.cpu.branchPred.ras.incorrect                 0                       # Number of times the RAS is the provider and the prediction is wrong (Count)
system.cpu.commitStats0.numInsts            332032354                       # Number of instructions committed (thread level) (Count)
system.cpu.commitStats0.numOps              597352735                       # Number of ops (including micro ops) committed (thread level) (Count)
system.cpu.commitStats0.numInstsNotNOP              0                       # Number of instructions committed excluding NOPs or prefetches (Count)
system.cpu.commitStats0.numOpsNotNOP                0                       # Number of Ops (including micro ops) Simulated (Count)
system.cpu.commitStats0.cpi                  3.603492                       # CPI: cycles per instruction (thread level) ((Cycle/Count))
system.cpu.commitStats0.ipc                  0.277509                       # IPC: instructions per cycle (thread level) ((Count/Cycle))
system.cpu.commitStats0.numMemRefs                  0                       # Number of memory references committed (Count)
system.cpu.commitStats0.numFpInsts                  0                       # Number of float instructions (Count)
system.cpu.commitStats0.numIntInsts                 0                       # Number of integer instructions (Count)
system.cpu.commitStats0.numLoadInsts                0                       # Number of load instructions (Count)
system.cpu.commitStats0.numStoreInsts               0                       # Number of store instructions (Count)
system.cpu.commitStats0.numVecInsts                 0                       # Number of vector instructions (Count)
system.cpu.commitStats0.committedInstType::No_OpClass      5566602      0.93%      0.93% # Class of committed instruction. (Count)
system.cpu.commitStats0.committedInstType::IntAlu    441424033     73.90%     74.83% # Class of committed instruction. (Count)
system.cpu.commitStats0.committedInstType::IntMult          110      0.00%     74.83% # Class of committed instruction. (Count)
system.cpu.commitStats0.committedInstType::IntDiv      9180842      1.54%     76.37% # Class of committed instruction. (Count)
system.cpu.commitStats0.committedInstType::FloatAdd      1851498      0.31%     76.68% # Class of committed instruction. (Count)
system.cpu.commitStats0.committedInstType::FloatCmp            0      0.00%     76.68% # Class of committed instruction. (Count)
system.cpu.commitStats0.committedInstType::FloatCvt         1264      0.00%     76.68% # Class of committed instruction. (Count)
system.cpu.commitStats0.committedInstType::FloatMult            0      0.00%     76.68% # Class of committed instruction. (Count)
system.cpu.commitStats0.committedInstType::FloatMultAcc            0      0.00%     76.68% # Class of committed instruction. (Count)
system.cpu.commitStats0.committedInstType::FloatDiv            0      0.00%     76.68% # Class of committed instruction. (Count)
system.cpu.commitStats0.committedInstType::FloatMisc            0      0.00%     76.68% # Class of committed instruction. (Count)
system.cpu.commitStats0.committedInstType::FloatSqrt            0      0.00%     76.68% # Class of committed instruction. (Count)
system.cpu.commitStats0.committedInstType::SimdAdd         6580      0.00%     76.68% # Class of committed instruction. (Count)
system.cpu.commitStats0.committedInstType::SimdAddAcc            0      0.00%     76.68% # Class of committed instruction. (Count)
system.cpu.commitStats0.committedInstType::SimdAlu      2455113      0.41%     77.09% # Class of committed instruction. (Count)
system.cpu.commitStats0.committedInstType::SimdCmp            6      0.00%     77.09% # Class of committed instruction. (Count)
system.cpu.commitStats0.committedInstType::SimdCvt        13630      0.00%     77.09% # Class of committed instruction. (Count)
system.cpu.commitStats0.committedInstType::SimdMisc      2363868      0.40%     77.49% # Class of committed instruction. (Count)
system.cpu.commitStats0.committedInstType::SimdMult            0      0.00%     77.49% # Class of committed instruction. (Count)
system.cpu.commitStats0.committedInstType::SimdMultAcc            0      0.00%     77.49% # Class of committed instruction. (Count)
system.cpu.commitStats0.committedInstType::SimdMatMultAcc            0      0.00%     77.49% # Class of committed instruction. (Count)
system.cpu.commitStats0.committedInstType::SimdShift         2065      0.00%     77.49% # Class of committed instruction. (Count)
system.cpu.commitStats0.committedInstType::SimdShiftAcc            0      0.00%     77.49% # Class of committed instruction. (Count)
system.cpu.commitStats0.committedInstType::SimdDiv            0      0.00%     77.49% # Class of committed instruction. (Count)
system.cpu.commitStats0.committedInstType::SimdSqrt            0      0.00%     77.49% # Class of committed instruction. (Count)
system.cpu.commitStats0.committedInstType::SimdFloatAdd           17      0.00%     77.49% # Class of committed instruction. (Count)
system.cpu.commitStats0.committedInstType::SimdFloatAlu            0      0.00%     77.49% # Class of committed instruction. (Count)
system.cpu.commitStats0.committedInstType::SimdFloatCmp            0      0.00%     77.49% # Class of committed instruction. (Count)
system.cpu.commitStats0.committedInstType::SimdFloatCvt           82      0.00%     77.49% # Class of committed instruction. (Count)
system.cpu.commitStats0.committedInstType::SimdFloatDiv            9      0.00%     77.49% # Class of committed instruction. (Count)
system.cpu.commitStats0.committedInstType::SimdFloatMisc            0      0.00%     77.49% # Class of committed instruction. (Count)
system.cpu.commitStats0.committedInstType::SimdFloatMult            8      0.00%     77.49% # Class of committed instruction. (Count)
system.cpu.commitStats0.committedInstType::SimdFloatMultAcc            0      0.00%     77.49% # Class of committed instruction. (Count)
system.cpu.commitStats0.committedInstType::SimdFloatMatMultAcc            0      0.00%     77.49% # Class of committed instruction. (Count)
system.cpu.commitStats0.committedInstType::SimdFloatSqrt            0      0.00%     77.49% # Class of committed instruction. (Count)
system.cpu.commitStats0.committedInstType::SimdReduceAdd            0      0.00%     77.49% # Class of committed instruction. (Count)
system.cpu.commitStats0.committedInstType::SimdReduceAlu            0      0.00%     77.49% # Class of committed instruction. (Count)
system.cpu.commitStats0.committedInstType::SimdReduceCmp            0      0.00%     77.49% # Class of committed instruction. (Count)
system.cpu.commitStats0.committedInstType::SimdFloatReduceAdd            0      0.00%     77.49% # Class of committed instruction. (Count)
system.cpu.commitStats0.committedInstType::SimdFloatReduceCmp            0      0.00%     77.49% # Class of committed instruction. (Count)
system.cpu.commitStats0.committedInstType::SimdAes            0      0.00%     77.49% # Class of committed instruction. (Count)
system.cpu.commitStats0.committedInstType::SimdAesMix            0      0.00%     77.49% # Class of committed instruction. (Count)
system.cpu.commitStats0.committedInstType::SimdSha1Hash            0      0.00%     77.49% # Class of committed instruction. (Count)
system.cpu.commitStats0.committedInstType::SimdSha1Hash2            0      0.00%     77.49% # Class of committed instruction. (Count)
system.cpu.commitStats0.committedInstType::SimdSha256Hash            0      0.00%     77.49% # Class of committed instruction. (Count)
system.cpu.commitStats0.committedInstType::SimdSha256Hash2            0      0.00%     77.49% # Class of committed instruction. (Count)
system.cpu.commitStats0.committedInstType::SimdShaSigma2            0      0.00%     77.49% # Class of committed instruction. (Count)
system.cpu.commitStats0.committedInstType::SimdShaSigma3            0      0.00%     77.49% # Class of committed instruction. (Count)
system.cpu.commitStats0.committedInstType::SimdPredAlu            0      0.00%     77.49% # Class of committed instruction. (Count)
system.cpu.commitStats0.committedInstType::Matrix            0      0.00%     77.49% # Class of committed instruction. (Count)
system.cpu.commitStats0.committedInstType::MatrixMov            0      0.00%     77.49% # Class of committed instruction. (Count)
system.cpu.commitStats0.committedInstType::MatrixOP            0      0.00%     77.49% # Class of committed instruction. (Count)
system.cpu.commitStats0.committedInstType::MemRead     81647070     13.67%     91.15% # Class of committed instruction. (Count)
system.cpu.commitStats0.committedInstType::MemWrite     43539693      7.29%     98.44% # Class of committed instruction. (Count)
system.cpu.commitStats0.committedInstType::FloatMemRead      1735443      0.29%     98.73% # Class of committed instruction. (Count)
system.cpu.commitStats0.committedInstType::FloatMemWrite      7564802      1.27%    100.00% # Class of committed instruction. (Count)
system.cpu.commitStats0.committedInstType::IprAccess            0      0.00%    100.00% # Class of committed instruction. (Count)
system.cpu.commitStats0.committedInstType::InstPrefetch            0      0.00%    100.00% # Class of committed instruction. (Count)
system.cpu.commitStats0.committedInstType::SimdUnitStrideLoad            0      0.00%    100.00% # Class of committed instruction. (Count)
system.cpu.commitStats0.committedInstType::SimdUnitStrideStore            0      0.00%    100.00% # Class of committed instruction. (Count)
system.cpu.commitStats0.committedInstType::SimdUnitStrideMaskLoad            0      0.00%    100.00% # Class of committed instruction. (Count)
system.cpu.commitStats0.committedInstType::SimdUnitStrideMaskStore            0      0.00%    100.00% # Class of committed instruction. (Count)
system.cpu.commitStats0.committedInstType::SimdStridedLoad            0      0.00%    100.00% # Class of committed instruction. (Count)
system.cpu.commitStats0.committedInstType::SimdStridedStore            0      0.00%    100.00% # Class of committed instruction. (Count)
system.cpu.commitStats0.committedInstType::SimdIndexedLoad            0      0.00%    100.00% # Class of committed instruction. (Count)
system.cpu.commitStats0.committedInstType::SimdIndexedStore            0      0.00%    100.00% # Class of committed instruction. (Count)
system.cpu.commitStats0.committedInstType::SimdWholeRegisterLoad            0      0.00%    100.00% # Class of committed instruction. (Count)
system.cpu.commitStats0.committedInstType::SimdWholeRegisterStore            0      0.00%    100.00% # Class of committed instruction. (Count)
system.cpu.commitStats0.committedInstType::SimdUnitStrideFaultOnlyFirstLoad            0      0.00%    100.00% # Class of committed instruction. (Count)
system.cpu.commitStats0.committedInstType::SimdUnitStrideSegmentedLoad            0      0.00%    100.00% # Class of committed instruction. (Count)
system.cpu.commitStats0.committedInstType::SimdUnitStrideSegmentedStore            0      0.00%    100.00% # Class of committed instruction. (Count)
system.cpu.commitStats0.committedInstType::SimdExt            0      0.00%    100.00% # Class of committed instruction. (Count)
system.cpu.commitStats0.committedInstType::SimdFloatExt            0      0.00%    100.00% # Class of committed instruction. (Count)
system.cpu.commitStats0.committedInstType::SimdConfig            0      0.00%    100.00% # Class of committed instruction. (Count)
system.cpu.commitStats0.committedInstType::total    597352735                       # Class of committed instruction. (Count)
system.cpu.executeStats0.numInsts                   0                       # Number of executed instructions (Count)
system.cpu.executeStats0.numNop                     0                       # Number of nop insts executed (Count)
system.cpu.executeStats0.numBranches                0                       # Number of branches executed (Count)
system.cpu.executeStats0.numLoadInsts               0                       # Number of load instructions executed (Count)
system.cpu.executeStats0.numStoreInsts              0                       # Number of stores executed (Count)
system.cpu.executeStats0.instRate                   0                       # Inst execution rate ((Count/Cycle))
system.cpu.executeStats0.numFpRegWrites             0                       # Number of times the floating registers were written (Count)
system.cpu.executeStats0.numMemRefs                 0                       # Number of memory refs (Count)
system.cpu.executeStats0.numVecAluAccesses            0                       # Number of vector alu accesses (Count)
system.cpu.executeStats0.numDiscardedOps     90505681                       # Number of ops (including micro ops) which were discarded before commit (Count)
system.cpu.fetch2.intInstructions                  91                       # Number of integer instructions successfully decoded (Count)
system.cpu.fetch2.fpInstructions                    0                       # Number of floating point instructions successfully decoded (Count)
system.cpu.fetch2.vecInstructions                   0                       # Number of SIMD instructions successfully decoded (Count)
system.cpu.fetch2.loadInstructions                  0                       # Number of memory load instructions successfully decoded (Count)
system.cpu.fetch2.storeInstructions                 0                       # Number of memory store instructions successfully decoded (Count)
system.cpu.fetch2.amoInstructions                   0                       # Number of memory atomic instructions successfully decoded (Count)
system.cpu.fetchStats0.numInsts                     0                       # Number of instructions fetched (thread level) (Count)
system.cpu.fetchStats0.numOps                       0                       # Number of ops (including micro ops) fetched (thread level) (Count)
system.cpu.fetchStats0.fetchRate                    0                       # Number of inst fetches per cycle ((Count/Cycle))
system.cpu.fetchStats0.branchRate                   0                       # Number of branch fetches per cycle (Ratio)
system.cpu.fetchStats0.numFetchSuspends             0                       # Number of times Execute suspended instruction fetching (Count)
system.cpu.interrupts.clk_domain.clock          16000                       # Clock period in ticks (Tick)
system.cpu.l1d.demandHits::cpu.data         134216060                       # number of demand (read+write) hits (Count)
system.cpu.l1d.demandHits::total            134216060                       # number of demand (read+write) hits (Count)
system.cpu.l1d.overallHits::cpu.data        134216061                       # number of overall hits (Count)
system.cpu.l1d.overallHits::total           134216061                       # number of overall hits (Count)
system.cpu.l1d.demandMisses::cpu.data         8833844                       # number of demand (read+write) misses (Count)
system.cpu.l1d.demandMisses::total            8833844                       # number of demand (read+write) misses (Count)
system.cpu.l1d.overallMisses::cpu.data        8833845                       # number of overall misses (Count)
system.cpu.l1d.overallMisses::total           8833845                       # number of overall misses (Count)
system.cpu.l1d.demandMissLatency::cpu.data 338987077000                       # number of demand (read+write) miss ticks (Tick)
system.cpu.l1d.demandMissLatency::total  338987077000                       # number of demand (read+write) miss ticks (Tick)
system.cpu.l1d.overallMissLatency::cpu.data 338987077000                       # number of overall miss ticks (Tick)
system.cpu.l1d.overallMissLatency::total 338987077000                       # number of overall miss ticks (Tick)
system.cpu.l1d.demandAccesses::cpu.data     143049904                       # number of demand (read+write) accesses (Count)
system.cpu.l1d.demandAccesses::total        143049904                       # number of demand (read+write) accesses (Count)
system.cpu.l1d.overallAccesses::cpu.data    143049906                       # number of overall (read+write) accesses (Count)
system.cpu.l1d.overallAccesses::total       143049906                       # number of overall (read+write) accesses (Count)
system.cpu.l1d.demandMissRate::cpu.data      0.061754                       # miss rate for demand accesses (Ratio)
system.cpu.l1d.demandMissRate::total         0.061754                       # miss rate for demand accesses (Ratio)
system.cpu.l1d.overallMissRate::cpu.data     0.061754                       # miss rate for overall accesses (Ratio)
system.cpu.l1d.overallMissRate::total        0.061754                       # miss rate for overall accesses (Ratio)
system.cpu.l1d.demandAvgMissLatency::cpu.data 38373.677076                       # average overall miss latency in ticks ((Tick/Count))
system.cpu.l1d.demandAvgMissLatency::total 38373.677076                       # average overall miss latency in ticks ((Tick/Count))
system.cpu.l1d.overallAvgMissLatency::cpu.data 38373.672733                       # average overall miss latency ((Tick/Count))
system.cpu.l1d.overallAvgMissLatency::total 38373.672733                       # average overall miss latency ((Tick/Count))
system.cpu.l1d.blockedCycles::no_mshrs              0                       # number of cycles access was blocked (Cycle)
system.cpu.l1d.blockedCycles::no_targets            0                       # number of cycles access was blocked (Cycle)
system.cpu.l1d.blockedCauses::no_mshrs              0                       # number of times access was blocked (Count)
system.cpu.l1d.blockedCauses::no_targets            0                       # number of times access was blocked (Count)
system.cpu.l1d.avgBlocked::no_mshrs               nan                       # average number of cycles each access was blocked ((Cycle/Count))
system.cpu.l1d.avgBlocked::no_targets             nan                       # average number of cycles each access was blocked ((Cycle/Count))
system.cpu.l1d.writebacks::writebacks         3528257                       # number of writebacks (Count)
system.cpu.l1d.writebacks::total              3528257                       # number of writebacks (Count)
system.cpu.l1d.demandMshrHits::cpu.data       1135604                       # number of demand (read+write) MSHR hits (Count)
system.cpu.l1d.demandMshrHits::total          1135604                       # number of demand (read+write) MSHR hits (Count)
system.cpu.l1d.overallMshrHits::cpu.data      1135604                       # number of overall MSHR hits (Count)
system.cpu.l1d.overallMshrHits::total         1135604                       # number of overall MSHR hits (Count)
system.cpu.l1d.demandMshrMisses::cpu.data      7698240                       # number of demand (read+write) MSHR misses (Count)
system.cpu.l1d.demandMshrMisses::total        7698240                       # number of demand (read+write) MSHR misses (Count)
system.cpu.l1d.overallMshrMisses::cpu.data      7698241                       # number of overall MSHR misses (Count)
system.cpu.l1d.overallMshrMisses::total       7698241                       # number of overall MSHR misses (Count)
system.cpu.l1d.demandMshrMissLatency::cpu.data 290123163000                       # number of demand (read+write) MSHR miss ticks (Tick)
system.cpu.l1d.demandMshrMissLatency::total 290123163000                       # number of demand (read+write) MSHR miss ticks (Tick)
system.cpu.l1d.overallMshrMissLatency::cpu.data 290123238000                       # number of overall MSHR miss ticks (Tick)
system.cpu.l1d.overallMshrMissLatency::total 290123238000                       # number of overall MSHR miss ticks (Tick)
system.cpu.l1d.demandMshrMissRate::cpu.data     0.053815                       # mshr miss ratio for demand accesses (Ratio)
system.cpu.l1d.demandMshrMissRate::total     0.053815                       # mshr miss ratio for demand accesses (Ratio)
system.cpu.l1d.overallMshrMissRate::cpu.data     0.053815                       # mshr miss ratio for overall accesses (Ratio)
system.cpu.l1d.overallMshrMissRate::total     0.053815                       # mshr miss ratio for overall accesses (Ratio)
system.cpu.l1d.demandAvgMshrMissLatency::cpu.data 37686.947016                       # average overall mshr miss latency ((Tick/Count))
system.cpu.l1d.demandAvgMshrMissLatency::total 37686.947016                       # average overall mshr miss latency ((Tick/Count))
system.cpu.l1d.overallAvgMshrMissLatency::cpu.data 37686.951863                       # average overall mshr miss latency ((Tick/Count))
system.cpu.l1d.overallAvgMshrMissLatency::total 37686.951863                       # average overall mshr miss latency ((Tick/Count))
system.cpu.l1d.replacements                   7698264                       # number of replacements (Count)
system.cpu.l1d.LockedRMWReadReq.hits::cpu.data          547                       # number of LockedRMWReadReq hits (Count)
system.cpu.l1d.LockedRMWReadReq.hits::total          547                       # number of LockedRMWReadReq hits (Count)
system.cpu.l1d.LockedRMWReadReq.misses::cpu.data           87                       # number of LockedRMWReadReq misses (Count)
system.cpu.l1d.LockedRMWReadReq.misses::total           87                       # number of LockedRMWReadReq misses (Count)
system.cpu.l1d.LockedRMWReadReq.missLatency::cpu.data      6387000                       # number of LockedRMWReadReq miss ticks (Tick)
system.cpu.l1d.LockedRMWReadReq.missLatency::total      6387000                       # number of LockedRMWReadReq miss ticks (Tick)
system.cpu.l1d.LockedRMWReadReq.accesses::cpu.data          634                       # number of LockedRMWReadReq accesses(hits+misses) (Count)
system.cpu.l1d.LockedRMWReadReq.accesses::total          634                       # number of LockedRMWReadReq accesses(hits+misses) (Count)
system.cpu.l1d.LockedRMWReadReq.missRate::cpu.data     0.137224                       # miss rate for LockedRMWReadReq accesses (Ratio)
system.cpu.l1d.LockedRMWReadReq.missRate::total     0.137224                       # miss rate for LockedRMWReadReq accesses (Ratio)
system.cpu.l1d.LockedRMWReadReq.avgMissLatency::cpu.data 73413.793103                       # average LockedRMWReadReq miss latency ((Tick/Count))
system.cpu.l1d.LockedRMWReadReq.avgMissLatency::total 73413.793103                       # average LockedRMWReadReq miss latency ((Tick/Count))
system.cpu.l1d.LockedRMWReadReq.mshrMisses::cpu.data           87                       # number of LockedRMWReadReq MSHR misses (Count)
system.cpu.l1d.LockedRMWReadReq.mshrMisses::total           87                       # number of LockedRMWReadReq MSHR misses (Count)
system.cpu.l1d.LockedRMWReadReq.mshrMissLatency::cpu.data     14593000                       # number of LockedRMWReadReq MSHR miss ticks (Tick)
system.cpu.l1d.LockedRMWReadReq.mshrMissLatency::total     14593000                       # number of LockedRMWReadReq MSHR miss ticks (Tick)
system.cpu.l1d.LockedRMWReadReq.mshrMissRate::cpu.data     0.137224                       # mshr miss rate for LockedRMWReadReq accesses (Ratio)
system.cpu.l1d.LockedRMWReadReq.mshrMissRate::total     0.137224                       # mshr miss rate for LockedRMWReadReq accesses (Ratio)
system.cpu.l1d.LockedRMWReadReq.avgMshrMissLatency::cpu.data 167735.632184                       # average LockedRMWReadReq mshr miss latency ((Tick/Count))
system.cpu.l1d.LockedRMWReadReq.avgMshrMissLatency::total 167735.632184                       # average LockedRMWReadReq mshr miss latency ((Tick/Count))
system.cpu.l1d.LockedRMWWriteReq.hits::cpu.data          634                       # number of LockedRMWWriteReq hits (Count)
system.cpu.l1d.LockedRMWWriteReq.hits::total          634                       # number of LockedRMWWriteReq hits (Count)
system.cpu.l1d.LockedRMWWriteReq.accesses::cpu.data          634                       # number of LockedRMWWriteReq accesses(hits+misses) (Count)
system.cpu.l1d.LockedRMWWriteReq.accesses::total          634                       # number of LockedRMWWriteReq accesses(hits+misses) (Count)
system.cpu.l1d.ReadReq.hits::cpu.data        84482080                       # number of ReadReq hits (Count)
system.cpu.l1d.ReadReq.hits::total           84482080                       # number of ReadReq hits (Count)
system.cpu.l1d.ReadReq.misses::cpu.data       7465485                       # number of ReadReq misses (Count)
system.cpu.l1d.ReadReq.misses::total          7465485                       # number of ReadReq misses (Count)
system.cpu.l1d.ReadReq.missLatency::cpu.data 261748772000                       # number of ReadReq miss ticks (Tick)
system.cpu.l1d.ReadReq.missLatency::total 261748772000                       # number of ReadReq miss ticks (Tick)
system.cpu.l1d.ReadReq.accesses::cpu.data     91947565                       # number of ReadReq accesses(hits+misses) (Count)
system.cpu.l1d.ReadReq.accesses::total       91947565                       # number of ReadReq accesses(hits+misses) (Count)
system.cpu.l1d.ReadReq.missRate::cpu.data     0.081193                       # miss rate for ReadReq accesses (Ratio)
system.cpu.l1d.ReadReq.missRate::total       0.081193                       # miss rate for ReadReq accesses (Ratio)
system.cpu.l1d.ReadReq.avgMissLatency::cpu.data 35061.187853                       # average ReadReq miss latency ((Tick/Count))
system.cpu.l1d.ReadReq.avgMissLatency::total 35061.187853                       # average ReadReq miss latency ((Tick/Count))
system.cpu.l1d.ReadReq.mshrHits::cpu.data       641913                       # number of ReadReq MSHR hits (Count)
system.cpu.l1d.ReadReq.mshrHits::total         641913                       # number of ReadReq MSHR hits (Count)
system.cpu.l1d.ReadReq.mshrMisses::cpu.data      6823572                       # number of ReadReq MSHR misses (Count)
system.cpu.l1d.ReadReq.mshrMisses::total      6823572                       # number of ReadReq MSHR misses (Count)
system.cpu.l1d.ReadReq.mshrMissLatency::cpu.data 247100892000                       # number of ReadReq MSHR miss ticks (Tick)
system.cpu.l1d.ReadReq.mshrMissLatency::total 247100892000                       # number of ReadReq MSHR miss ticks (Tick)
system.cpu.l1d.ReadReq.mshrMissRate::cpu.data     0.074212                       # mshr miss rate for ReadReq accesses (Ratio)
system.cpu.l1d.ReadReq.mshrMissRate::total     0.074212                       # mshr miss rate for ReadReq accesses (Ratio)
system.cpu.l1d.ReadReq.avgMshrMissLatency::cpu.data 36212.835741                       # average ReadReq mshr miss latency ((Tick/Count))
system.cpu.l1d.ReadReq.avgMshrMissLatency::total 36212.835741                       # average ReadReq mshr miss latency ((Tick/Count))
system.cpu.l1d.SoftPFReq.hits::cpu.data             1                       # number of SoftPFReq hits (Count)
system.cpu.l1d.SoftPFReq.hits::total                1                       # number of SoftPFReq hits (Count)
system.cpu.l1d.SoftPFReq.misses::cpu.data            1                       # number of SoftPFReq misses (Count)
system.cpu.l1d.SoftPFReq.misses::total              1                       # number of SoftPFReq misses (Count)
system.cpu.l1d.SoftPFReq.accesses::cpu.data            2                       # number of SoftPFReq accesses(hits+misses) (Count)
system.cpu.l1d.SoftPFReq.accesses::total            2                       # number of SoftPFReq accesses(hits+misses) (Count)
system.cpu.l1d.SoftPFReq.missRate::cpu.data     0.500000                       # miss rate for SoftPFReq accesses (Ratio)
system.cpu.l1d.SoftPFReq.missRate::total     0.500000                       # miss rate for SoftPFReq accesses (Ratio)
system.cpu.l1d.SoftPFReq.mshrMisses::cpu.data            1                       # number of SoftPFReq MSHR misses (Count)
system.cpu.l1d.SoftPFReq.mshrMisses::total            1                       # number of SoftPFReq MSHR misses (Count)
system.cpu.l1d.SoftPFReq.mshrMissLatency::cpu.data        75000                       # number of SoftPFReq MSHR miss ticks (Tick)
system.cpu.l1d.SoftPFReq.mshrMissLatency::total        75000                       # number of SoftPFReq MSHR miss ticks (Tick)
system.cpu.l1d.SoftPFReq.mshrMissRate::cpu.data     0.500000                       # mshr miss rate for SoftPFReq accesses (Ratio)
system.cpu.l1d.SoftPFReq.mshrMissRate::total     0.500000                       # mshr miss rate for SoftPFReq accesses (Ratio)
system.cpu.l1d.SoftPFReq.avgMshrMissLatency::cpu.data        75000                       # average SoftPFReq mshr miss latency ((Tick/Count))
system.cpu.l1d.SoftPFReq.avgMshrMissLatency::total        75000                       # average SoftPFReq mshr miss latency ((Tick/Count))
system.cpu.l1d.WriteReq.hits::cpu.data       49733980                       # number of WriteReq hits (Count)
system.cpu.l1d.WriteReq.hits::total          49733980                       # number of WriteReq hits (Count)
system.cpu.l1d.WriteReq.misses::cpu.data      1368359                       # number of WriteReq misses (Count)
system.cpu.l1d.WriteReq.misses::total         1368359                       # number of WriteReq misses (Count)
system.cpu.l1d.WriteReq.missLatency::cpu.data  77238305000                       # number of WriteReq miss ticks (Tick)
system.cpu.l1d.WriteReq.missLatency::total  77238305000                       # number of WriteReq miss ticks (Tick)
system.cpu.l1d.WriteReq.accesses::cpu.data     51102339                       # number of WriteReq accesses(hits+misses) (Count)
system.cpu.l1d.WriteReq.accesses::total      51102339                       # number of WriteReq accesses(hits+misses) (Count)
system.cpu.l1d.WriteReq.missRate::cpu.data     0.026777                       # miss rate for WriteReq accesses (Ratio)
system.cpu.l1d.WriteReq.missRate::total      0.026777                       # miss rate for WriteReq accesses (Ratio)
system.cpu.l1d.WriteReq.avgMissLatency::cpu.data 56445.936337                       # average WriteReq miss latency ((Tick/Count))
system.cpu.l1d.WriteReq.avgMissLatency::total 56445.936337                       # average WriteReq miss latency ((Tick/Count))
system.cpu.l1d.WriteReq.mshrHits::cpu.data       493691                       # number of WriteReq MSHR hits (Count)
system.cpu.l1d.WriteReq.mshrHits::total        493691                       # number of WriteReq MSHR hits (Count)
system.cpu.l1d.WriteReq.mshrMisses::cpu.data       874668                       # number of WriteReq MSHR misses (Count)
system.cpu.l1d.WriteReq.mshrMisses::total       874668                       # number of WriteReq MSHR misses (Count)
system.cpu.l1d.WriteReq.mshrMissLatency::cpu.data  43022271000                       # number of WriteReq MSHR miss ticks (Tick)
system.cpu.l1d.WriteReq.mshrMissLatency::total  43022271000                       # number of WriteReq MSHR miss ticks (Tick)
system.cpu.l1d.WriteReq.mshrMissRate::cpu.data     0.017116                       # mshr miss rate for WriteReq accesses (Ratio)
system.cpu.l1d.WriteReq.mshrMissRate::total     0.017116                       # mshr miss rate for WriteReq accesses (Ratio)
system.cpu.l1d.WriteReq.avgMshrMissLatency::cpu.data 49186.972657                       # average WriteReq mshr miss latency ((Tick/Count))
system.cpu.l1d.WriteReq.avgMshrMissLatency::total 49186.972657                       # average WriteReq mshr miss latency ((Tick/Count))
system.cpu.l1d.power_state.pwrStateResidencyTicks::UNDEFINED 1196475822000                       # Cumulative time (in ticks) in various power states (Tick)
system.cpu.l1d.tags.tagsInUse               63.999822                       # Average ticks per tags in use ((Tick/Count))
system.cpu.l1d.tags.totalRefs               140776905                       # Total number of references to valid blocks. (Count)
system.cpu.l1d.tags.sampledRefs               7698264                       # Sample count of references to valid blocks. (Count)
system.cpu.l1d.tags.avgRefs                 18.286838                       # Average number of references to valid blocks. ((Count/Count))
system.cpu.l1d.tags.warmupTick                 164000                       # The tick when the warmup percentage was hit. (Tick)
system.cpu.l1d.tags.occupancies::cpu.data    63.999822                       # Average occupied blocks per tick, per requestor ((Count/Tick))
system.cpu.l1d.tags.avgOccs::cpu.data        0.999997                       # Average percentage of cache occupancy ((Ratio/Tick))
system.cpu.l1d.tags.avgOccs::total           0.999997                       # Average percentage of cache occupancy ((Ratio/Tick))
system.cpu.l1d.tags.occupanciesTaskId::1024           64                       # Occupied blocks per task id (Count)
system.cpu.l1d.tags.ageTaskId_1024::0              48                       # Occupied blocks per task id, per block age (Count)
system.cpu.l1d.tags.ageTaskId_1024::1              12                       # Occupied blocks per task id, per block age (Count)
system.cpu.l1d.tags.ageTaskId_1024::4               4                       # Occupied blocks per task id, per block age (Count)
system.cpu.l1d.tags.ratioOccsTaskId::1024            1                       # Ratio of occupied blocks and all blocks, per task id (Ratio)
system.cpu.l1d.tags.tagAccesses             579903024                       # Number of tag accesses (Count)
system.cpu.l1d.tags.dataAccesses            579903024                       # Number of data accesses (Count)
system.cpu.l1d.tags.power_state.pwrStateResidencyTicks::UNDEFINED 1196475822000                       # Cumulative time (in ticks) in various power states (Tick)
system.cpu.l1i.demandHits::cpu.inst          91641232                       # number of demand (read+write) hits (Count)
system.cpu.l1i.demandHits::total             91641232                       # number of demand (read+write) hits (Count)
system.cpu.l1i.overallHits::cpu.inst         91641232                       # number of overall hits (Count)
system.cpu.l1i.overallHits::total            91641232                       # number of overall hits (Count)
system.cpu.l1i.demandMisses::cpu.inst        13945515                       # number of demand (read+write) misses (Count)
system.cpu.l1i.demandMisses::total           13945515                       # number of demand (read+write) misses (Count)
system.cpu.l1i.overallMisses::cpu.inst       13945515                       # number of overall misses (Count)
system.cpu.l1i.overallMisses::total          13945515                       # number of overall misses (Count)
system.cpu.l1i.demandMissLatency::cpu.inst 168229846000                       # number of demand (read+write) miss ticks (Tick)
system.cpu.l1i.demandMissLatency::total  168229846000                       # number of demand (read+write) miss ticks (Tick)
system.cpu.l1i.overallMissLatency::cpu.inst 168229846000                       # number of overall miss ticks (Tick)
system.cpu.l1i.overallMissLatency::total 168229846000                       # number of overall miss ticks (Tick)
system.cpu.l1i.demandAccesses::cpu.inst     105586747                       # number of demand (read+write) accesses (Count)
system.cpu.l1i.demandAccesses::total        105586747                       # number of demand (read+write) accesses (Count)
system.cpu.l1i.overallAccesses::cpu.inst    105586747                       # number of overall (read+write) accesses (Count)
system.cpu.l1i.overallAccesses::total       105586747                       # number of overall (read+write) accesses (Count)
system.cpu.l1i.demandMissRate::cpu.inst      0.132076                       # miss rate for demand accesses (Ratio)
system.cpu.l1i.demandMissRate::total         0.132076                       # miss rate for demand accesses (Ratio)
system.cpu.l1i.overallMissRate::cpu.inst     0.132076                       # miss rate for overall accesses (Ratio)
system.cpu.l1i.overallMissRate::total        0.132076                       # miss rate for overall accesses (Ratio)
system.cpu.l1i.demandAvgMissLatency::cpu.inst 12063.365605                       # average overall miss latency in ticks ((Tick/Count))
system.cpu.l1i.demandAvgMissLatency::total 12063.365605                       # average overall miss latency in ticks ((Tick/Count))
system.cpu.l1i.overallAvgMissLatency::cpu.inst 12063.365605                       # average overall miss latency ((Tick/Count))
system.cpu.l1i.overallAvgMissLatency::total 12063.365605                       # average overall miss latency ((Tick/Count))
system.cpu.l1i.blockedCycles::no_mshrs              0                       # number of cycles access was blocked (Cycle)
system.cpu.l1i.blockedCycles::no_targets            0                       # number of cycles access was blocked (Cycle)
system.cpu.l1i.blockedCauses::no_mshrs              0                       # number of times access was blocked (Count)
system.cpu.l1i.blockedCauses::no_targets            0                       # number of times access was blocked (Count)
system.cpu.l1i.avgBlocked::no_mshrs               nan                       # average number of cycles each access was blocked ((Cycle/Count))
system.cpu.l1i.avgBlocked::no_targets             nan                       # average number of cycles each access was blocked ((Cycle/Count))
system.cpu.l1i.demandMshrMisses::cpu.inst     13945515                       # number of demand (read+write) MSHR misses (Count)
system.cpu.l1i.demandMshrMisses::total       13945515                       # number of demand (read+write) MSHR misses (Count)
system.cpu.l1i.overallMshrMisses::cpu.inst     13945515                       # number of overall MSHR misses (Count)
system.cpu.l1i.overallMshrMisses::total      13945515                       # number of overall MSHR misses (Count)
system.cpu.l1i.demandMshrMissLatency::cpu.inst 154284332000                       # number of demand (read+write) MSHR miss ticks (Tick)
system.cpu.l1i.demandMshrMissLatency::total 154284332000                       # number of demand (read+write) MSHR miss ticks (Tick)
system.cpu.l1i.overallMshrMissLatency::cpu.inst 154284332000                       # number of overall MSHR miss ticks (Tick)
system.cpu.l1i.overallMshrMissLatency::total 154284332000                       # number of overall MSHR miss ticks (Tick)
system.cpu.l1i.demandMshrMissRate::cpu.inst     0.132076                       # mshr miss ratio for demand accesses (Ratio)
system.cpu.l1i.demandMshrMissRate::total     0.132076                       # mshr miss ratio for demand accesses (Ratio)
system.cpu.l1i.overallMshrMissRate::cpu.inst     0.132076                       # mshr miss ratio for overall accesses (Ratio)
system.cpu.l1i.overallMshrMissRate::total     0.132076                       # mshr miss ratio for overall accesses (Ratio)
system.cpu.l1i.demandAvgMshrMissLatency::cpu.inst 11063.365677                       # average overall mshr miss latency ((Tick/Count))
system.cpu.l1i.demandAvgMshrMissLatency::total 11063.365677                       # average overall mshr miss latency ((Tick/Count))
system.cpu.l1i.overallAvgMshrMissLatency::cpu.inst 11063.365677                       # average overall mshr miss latency ((Tick/Count))
system.cpu.l1i.overallAvgMshrMissLatency::total 11063.365677                       # average overall mshr miss latency ((Tick/Count))
system.cpu.l1i.replacements                  13945450                       # number of replacements (Count)
system.cpu.l1i.ReadReq.hits::cpu.inst        91641232                       # number of ReadReq hits (Count)
system.cpu.l1i.ReadReq.hits::total           91641232                       # number of ReadReq hits (Count)
system.cpu.l1i.ReadReq.misses::cpu.inst      13945515                       # number of ReadReq misses (Count)
system.cpu.l1i.ReadReq.misses::total         13945515                       # number of ReadReq misses (Count)
system.cpu.l1i.ReadReq.missLatency::cpu.inst 168229846000                       # number of ReadReq miss ticks (Tick)
system.cpu.l1i.ReadReq.missLatency::total 168229846000                       # number of ReadReq miss ticks (Tick)
system.cpu.l1i.ReadReq.accesses::cpu.inst    105586747                       # number of ReadReq accesses(hits+misses) (Count)
system.cpu.l1i.ReadReq.accesses::total      105586747                       # number of ReadReq accesses(hits+misses) (Count)
system.cpu.l1i.ReadReq.missRate::cpu.inst     0.132076                       # miss rate for ReadReq accesses (Ratio)
system.cpu.l1i.ReadReq.missRate::total       0.132076                       # miss rate for ReadReq accesses (Ratio)
system.cpu.l1i.ReadReq.avgMissLatency::cpu.inst 12063.365605                       # average ReadReq miss latency ((Tick/Count))
system.cpu.l1i.ReadReq.avgMissLatency::total 12063.365605                       # average ReadReq miss latency ((Tick/Count))
system.cpu.l1i.ReadReq.mshrMisses::cpu.inst     13945515                       # number of ReadReq MSHR misses (Count)
system.cpu.l1i.ReadReq.mshrMisses::total     13945515                       # number of ReadReq MSHR misses (Count)
system.cpu.l1i.ReadReq.mshrMissLatency::cpu.inst 154284332000                       # number of ReadReq MSHR miss ticks (Tick)
system.cpu.l1i.ReadReq.mshrMissLatency::total 154284332000                       # number of ReadReq MSHR miss ticks (Tick)
system.cpu.l1i.ReadReq.mshrMissRate::cpu.inst     0.132076                       # mshr miss rate for ReadReq accesses (Ratio)
system.cpu.l1i.ReadReq.mshrMissRate::total     0.132076                       # mshr miss rate for ReadReq accesses (Ratio)
system.cpu.l1i.ReadReq.avgMshrMissLatency::cpu.inst 11063.365677                       # average ReadReq mshr miss latency ((Tick/Count))
system.cpu.l1i.ReadReq.avgMshrMissLatency::total 11063.365677                       # average ReadReq mshr miss latency ((Tick/Count))
system.cpu.l1i.power_state.pwrStateResidencyTicks::UNDEFINED 1196475822000                       # Cumulative time (in ticks) in various power states (Tick)
system.cpu.l1i.tags.tagsInUse               63.999521                       # Average ticks per tags in use ((Tick/Count))
system.cpu.l1i.tags.totalRefs               104511425                       # Total number of references to valid blocks. (Count)
system.cpu.l1i.tags.sampledRefs              13945450                       # Sample count of references to valid blocks. (Count)
system.cpu.l1i.tags.avgRefs                  7.494303                       # Average number of references to valid blocks. ((Count/Count))
system.cpu.l1i.tags.warmupTick                  79000                       # The tick when the warmup percentage was hit. (Tick)
system.cpu.l1i.tags.occupancies::cpu.inst    63.999521                       # Average occupied blocks per tick, per requestor ((Count/Tick))
system.cpu.l1i.tags.avgOccs::cpu.inst        0.999993                       # Average percentage of cache occupancy ((Ratio/Tick))
system.cpu.l1i.tags.avgOccs::total           0.999993                       # Average percentage of cache occupancy ((Ratio/Tick))
system.cpu.l1i.tags.occupanciesTaskId::1024           64                       # Occupied blocks per task id (Count)
system.cpu.l1i.tags.ageTaskId_1024::0              55                       # Occupied blocks per task id, per block age (Count)
system.cpu.l1i.tags.ageTaskId_1024::4               9                       # Occupied blocks per task id, per block age (Count)
system.cpu.l1i.tags.ratioOccsTaskId::1024            1                       # Ratio of occupied blocks and all blocks, per task id (Ratio)
system.cpu.l1i.tags.tagAccesses             436292502                       # Number of tag accesses (Count)
system.cpu.l1i.tags.dataAccesses            436292502                       # Number of data accesses (Count)
system.cpu.l1i.tags.power_state.pwrStateResidencyTicks::UNDEFINED 1196475822000                       # Cumulative time (in ticks) in various power states (Tick)
system.cpu.mmu.dtb.rdAccesses                92007814                       # TLB accesses on read requests (Count)
system.cpu.mmu.dtb.wrAccesses                54069380                       # TLB accesses on write requests (Count)
system.cpu.mmu.dtb.rdMisses                   1423770                       # TLB misses on read requests (Count)
system.cpu.mmu.dtb.wrMisses                     50157                       # TLB misses on write requests (Count)
system.cpu.mmu.dtb.walker.power_state.pwrStateResidencyTicks::UNDEFINED 1196475822000                       # Cumulative time (in ticks) in various power states (Tick)
system.cpu.mmu.itb.rdAccesses                       0                       # TLB accesses on read requests (Count)
system.cpu.mmu.itb.wrAccesses               105586892                       # TLB accesses on write requests (Count)
system.cpu.mmu.itb.rdMisses                         0                       # TLB misses on read requests (Count)
system.cpu.mmu.itb.wrMisses                       533                       # TLB misses on write requests (Count)
system.cpu.mmu.itb.walker.power_state.pwrStateResidencyTicks::UNDEFINED 1196475822000                       # Cumulative time (in ticks) in various power states (Tick)
system.cpu.power_state.pwrStateResidencyTicks::ON 1196475822000                       # Cumulative time (in ticks) in various power states (Tick)
system.cpu.thread_0.numInsts                332032354                       # Number of Instructions committed (Count)
system.cpu.thread_0.numOps                  597352735                       # Number of Ops committed (Count)
system.cpu.thread_0.numMemRefs                      0                       # Number of Memory References (Count)
system.cpu.workload.numSyscalls                   129                       # Number of system calls (Count)
system.l2_bus.transDist::ReadResp            20769087                       # Transaction distribution (Count)
system.l2_bus.transDist::WritebackDirty       5071098                       # Transaction distribution (Count)
system.l2_bus.transDist::CleanEvict          19675376                       # Transaction distribution (Count)
system.l2_bus.transDist::ReadExReq             874755                       # Transaction distribution (Count)
system.l2_bus.transDist::ReadExResp            874755                       # Transaction distribution (Count)
system.l2_bus.transDist::ReadSharedReq       20769088                       # Transaction distribution (Count)
system.l2_bus.pktCount_system.cpu.l1d.mem_side_port::system.l2_cache.cpu_side_port     23094920                       # Packet count per connected requestor and responder (Count)
system.l2_bus.pktCount_system.cpu.l1i.mem_side_port::system.l2_cache.cpu_side_port     41836479                       # Packet count per connected requestor and responder (Count)
system.l2_bus.pktCount::total                64931399                       # Packet count per connected requestor and responder (Count)
system.l2_bus.pktSize_system.cpu.l1d.mem_side_port::system.l2_cache.cpu_side_port    718501440                       # Cumulative packet size per connected requestor and responder (Byte)
system.l2_bus.pktSize_system.cpu.l1i.mem_side_port::system.l2_cache.cpu_side_port    892512896                       # Cumulative packet size per connected requestor and responder (Byte)
system.l2_bus.pktSize::total               1611014336                       # Cumulative packet size per connected requestor and responder (Byte)
system.l2_bus.snoops                          3102760                       # Total snoops (Count)
system.l2_bus.snoopTraffic                   98741824                       # Total snoop traffic (Byte)
system.l2_bus.snoopFanout::samples           24746603                       # Request fanout histogram (Count)
system.l2_bus.snoopFanout::mean              0.001094                       # Request fanout histogram (Count)
system.l2_bus.snoopFanout::stdev             0.033065                       # Request fanout histogram (Count)
system.l2_bus.snoopFanout::underflows               0      0.00%      0.00% # Request fanout histogram (Count)
system.l2_bus.snoopFanout::0                 24719518     99.89%     99.89% # Request fanout histogram (Count)
system.l2_bus.snoopFanout::1                    27085      0.11%    100.00% # Request fanout histogram (Count)
system.l2_bus.snoopFanout::2                        0      0.00%    100.00% # Request fanout histogram (Count)
system.l2_bus.snoopFanout::overflows                0      0.00%    100.00% # Request fanout histogram (Count)
system.l2_bus.snoopFanout::min_value                0                       # Request fanout histogram (Count)
system.l2_bus.snoopFanout::max_value                1                       # Request fanout histogram (Count)
system.l2_bus.snoopFanout::total             24746603                       # Request fanout histogram (Count)
system.l2_bus.power_state.pwrStateResidencyTicks::UNDEFINED 1196475822000                       # Cumulative time (in ticks) in various power states (Tick)
system.l2_bus.reqLayer0.occupancy         50344071000                       # Layer occupancy (ticks) (Tick)
system.l2_bus.reqLayer0.utilization               0.0                       # Layer utilization (Ratio)
system.l2_bus.respLayer0.occupancy        23095131852                       # Layer occupancy (ticks) (Tick)
system.l2_bus.respLayer0.utilization              0.0                       # Layer utilization (Ratio)
system.l2_bus.respLayer1.occupancy        41836686855                       # Layer occupancy (ticks) (Tick)
system.l2_bus.respLayer1.utilization              0.0                       # Layer utilization (Ratio)
system.l2_bus.snoop_filter.totRequests       43287557                       # Total number of requests made to the snoop filter. (Count)
system.l2_bus.snoop_filter.hitSingleRequests     21643714                       # Number of requests hitting in the snoop filter with a single holder of the requested data. (Count)
system.l2_bus.snoop_filter.hitMultiRequests         3841                       # Number of requests hitting in the snoop filter with multiple (>1) holders of the requested data. (Count)
system.l2_bus.snoop_filter.totSnoops            23244                       # Total number of snoops made to the snoop filter. (Count)
system.l2_bus.snoop_filter.hitSingleSnoops        23244                       # Number of snoops hitting in the snoop filter with a single holder of the requested data. (Count)
system.l2_bus.snoop_filter.hitMultiSnoops            0                       # Number of snoops hitting in the snoop filter with multiple (>1) holders of the requested data. (Count)
system.l2_cache.demandHits::cpu.inst         13933509                       # number of demand (read+write) hits (Count)
system.l2_cache.demandHits::cpu.data          4614508                       # number of demand (read+write) hits (Count)
system.l2_cache.demandHits::total            18548017                       # number of demand (read+write) hits (Count)
system.l2_cache.overallHits::cpu.inst        13933509                       # number of overall hits (Count)
system.l2_cache.overallHits::cpu.data         4614508                       # number of overall hits (Count)
system.l2_cache.overallHits::total           18548017                       # number of overall hits (Count)
system.l2_cache.demandMisses::cpu.inst          12006                       # number of demand (read+write) misses (Count)
system.l2_cache.demandMisses::cpu.data        3083820                       # number of demand (read+write) misses (Count)
system.l2_cache.demandMisses::total           3095826                       # number of demand (read+write) misses (Count)
system.l2_cache.overallMisses::cpu.inst         12006                       # number of overall misses (Count)
system.l2_cache.overallMisses::cpu.data       3083820                       # number of overall misses (Count)
system.l2_cache.overallMisses::total          3095826                       # number of overall misses (Count)
system.l2_cache.demandMissLatency::cpu.inst    864889000                       # number of demand (read+write) miss ticks (Tick)
system.l2_cache.demandMissLatency::cpu.data 232827268000                       # number of demand (read+write) miss ticks (Tick)
system.l2_cache.demandMissLatency::total 233692157000                       # number of demand (read+write) miss ticks (Tick)
system.l2_cache.overallMissLatency::cpu.inst    864889000                       # number of overall miss ticks (Tick)
system.l2_cache.overallMissLatency::cpu.data 232827268000                       # number of overall miss ticks (Tick)
system.l2_cache.overallMissLatency::total 233692157000                       # number of overall miss ticks (Tick)
system.l2_cache.demandAccesses::cpu.inst     13945515                       # number of demand (read+write) accesses (Count)
system.l2_cache.demandAccesses::cpu.data      7698328                       # number of demand (read+write) accesses (Count)
system.l2_cache.demandAccesses::total        21643843                       # number of demand (read+write) accesses (Count)
system.l2_cache.overallAccesses::cpu.inst     13945515                       # number of overall (read+write) accesses (Count)
system.l2_cache.overallAccesses::cpu.data      7698328                       # number of overall (read+write) accesses (Count)
system.l2_cache.overallAccesses::total       21643843                       # number of overall (read+write) accesses (Count)
system.l2_cache.demandMissRate::cpu.inst     0.000861                       # miss rate for demand accesses (Ratio)
system.l2_cache.demandMissRate::cpu.data     0.400583                       # miss rate for demand accesses (Ratio)
system.l2_cache.demandMissRate::total        0.143035                       # miss rate for demand accesses (Ratio)
system.l2_cache.overallMissRate::cpu.inst     0.000861                       # miss rate for overall accesses (Ratio)
system.l2_cache.overallMissRate::cpu.data     0.400583                       # miss rate for overall accesses (Ratio)
system.l2_cache.overallMissRate::total       0.143035                       # miss rate for overall accesses (Ratio)
system.l2_cache.demandAvgMissLatency::cpu.inst 72038.064301                       # average overall miss latency in ticks ((Tick/Count))
system.l2_cache.demandAvgMissLatency::cpu.data 75499.629680                       # average overall miss latency in ticks ((Tick/Count))
system.l2_cache.demandAvgMissLatency::total 75486.205297                       # average overall miss latency in ticks ((Tick/Count))
system.l2_cache.overallAvgMissLatency::cpu.inst 72038.064301                       # average overall miss latency ((Tick/Count))
system.l2_cache.overallAvgMissLatency::cpu.data 75499.629680                       # average overall miss latency ((Tick/Count))
system.l2_cache.overallAvgMissLatency::total 75486.205297                       # average overall miss latency ((Tick/Count))
system.l2_cache.blockedCycles::no_mshrs             0                       # number of cycles access was blocked (Cycle)
system.l2_cache.blockedCycles::no_targets            0                       # number of cycles access was blocked (Cycle)
system.l2_cache.blockedCauses::no_mshrs             0                       # number of times access was blocked (Count)
system.l2_cache.blockedCauses::no_targets            0                       # number of times access was blocked (Count)
system.l2_cache.avgBlocked::no_mshrs              nan                       # average number of cycles each access was blocked ((Cycle/Count))
system.l2_cache.avgBlocked::no_targets            nan                       # average number of cycles each access was blocked ((Cycle/Count))
system.l2_cache.writebacks::writebacks        1542841                       # number of writebacks (Count)
system.l2_cache.writebacks::total             1542841                       # number of writebacks (Count)
system.l2_cache.demandMshrMisses::cpu.inst        12006                       # number of demand (read+write) MSHR misses (Count)
system.l2_cache.demandMshrMisses::cpu.data      3083820                       # number of demand (read+write) MSHR misses (Count)
system.l2_cache.demandMshrMisses::total       3095826                       # number of demand (read+write) MSHR misses (Count)
system.l2_cache.overallMshrMisses::cpu.inst        12006                       # number of overall MSHR misses (Count)
system.l2_cache.overallMshrMisses::cpu.data      3083820                       # number of overall MSHR misses (Count)
system.l2_cache.overallMshrMisses::total      3095826                       # number of overall MSHR misses (Count)
system.l2_cache.demandMshrMissLatency::cpu.inst    852884000                       # number of demand (read+write) MSHR miss ticks (Tick)
[...]
system.mem_ctrl.dram.numReads::cpu.data         26036                       # Number of read requests responded to by this memory (Count)
system.mem_ctrl.dram.numReads::total            27574                       # Number of read requests responded to by this memory (Count)
system.mem_ctrl.dram.numWrites::writebacks          711                       # Number of write requests responded to by this memory (Count)
system.mem_ctrl.dram.numWrites::total             711                       # Number of write requests responded to by this memory (Count)
system.mem_ctrl.dram.bwRead::cpu.inst        26259948                       # Total read bandwidth from this memory ((Byte/Second))
system.mem_ctrl.dram.bwRead::cpu.data       444540960                       # Total read bandwidth from this memory ((Byte/Second))
system.mem_ctrl.dram.bwRead::total          470800908                       # Total read bandwidth from this memory ((Byte/Second))
system.mem_ctrl.dram.bwInstRead::cpu.inst     26259948                       # Instruction read bandwidth from this memory ((Byte/Second))
system.mem_ctrl.dram.bwInstRead::total       26259948                       # Instruction read bandwidth from this memory ((Byte/Second))
system.mem_ctrl.dram.bwWrite::writebacks     12139677                       # Write bandwidth from this memory ((Byte/Second))
system.mem_ctrl.dram.bwWrite::total          12139677                       # Write bandwidth from this memory ((Byte/Second))
system.mem_ctrl.dram.bwTotal::writebacks     12139677                       # Total bandwidth to/from this memory ((Byte/Second))
system.mem_ctrl.dram.bwTotal::cpu.inst       26259948                       # Total bandwidth to/from this memory ((Byte/Second))
system.mem_ctrl.dram.bwTotal::cpu.data      444540960                       # Total bandwidth to/from this memory ((Byte/Second))
system.mem_ctrl.dram.bwTotal::total         482940585                       # Total bandwidth to/from this memory ((Byte/Second))
system.mem_ctrl.dram.readBursts                 27531                       # Number of DRAM read bursts (Count)
system.mem_ctrl.dram.writeBursts                  708                       # Number of DRAM write bursts (Count)
system.mem_ctrl.dram.perBankRdBursts::0          1679                       # Per bank write bursts (Count)
system.mem_ctrl.dram.perBankRdBursts::1          1688                       # Per bank write bursts (Count)
system.mem_ctrl.dram.perBankRdBursts::2          1813                       # Per bank write bursts (Count)
system.mem_ctrl.dram.perBankRdBursts::3          1734                       # Per bank write bursts (Count)
system.mem_ctrl.dram.perBankRdBursts::4          1658                       # Per bank write bursts (Count)
system.mem_ctrl.dram.perBankRdBursts::5          1705                       # Per bank write bursts (Count)
system.mem_ctrl.dram.perBankRdBursts::6          1705                       # Per bank write bursts (Count)
system.mem_ctrl.dram.perBankRdBursts::7          1646                       # Per bank write bursts (Count)
system.mem_ctrl.dram.perBankRdBursts::8          1648                       # Per bank write bursts (Count)
system.mem_ctrl.dram.perBankRdBursts::9          1795                       # Per bank write bursts (Count)
system.mem_ctrl.dram.perBankRdBursts::10         1893                       # Per bank write bursts (Count)
system.mem_ctrl.dram.perBankRdBursts::11         1854                       # Per bank write bursts (Count)
system.mem_ctrl.dram.perBankRdBursts::12         1684                       # Per bank write bursts (Count)
system.mem_ctrl.dram.perBankRdBursts::13         1633                       # Per bank write bursts (Count)
system.mem_ctrl.dram.perBankRdBursts::14         1749                       # Per bank write bursts (Count)
system.mem_ctrl.dram.perBankRdBursts::15         1647                       # Per bank write bursts (Count)
system.mem_ctrl.dram.perBankWrBursts::0            32                       # Per bank write bursts (Count)
system.mem_ctrl.dram.perBankWrBursts::1             0                       # Per bank write bursts (Count)
system.mem_ctrl.dram.perBankWrBursts::2             9                       # Per bank write bursts (Count)
system.mem_ctrl.dram.perBankWrBursts::3             1                       # Per bank write bursts (Count)
system.mem_ctrl.dram.perBankWrBursts::4             0                       # Per bank write bursts (Count)
system.mem_ctrl.dram.perBankWrBursts::5            13                       # Per bank write bursts (Count)
system.mem_ctrl.dram.perBankWrBursts::6             5                       # Per bank write bursts (Count)
system.mem_ctrl.dram.perBankWrBursts::7             5                       # Per bank write bursts (Count)
system.mem_ctrl.dram.perBankWrBursts::8             8                       # Per bank write bursts (Count)
system.mem_ctrl.dram.perBankWrBursts::9             6                       # Per bank write bursts (Count)
system.mem_ctrl.dram.perBankWrBursts::10           50                       # Per bank write bursts (Count)
system.mem_ctrl.dram.perBankWrBursts::11           16                       # Per bank write bursts (Count)
system.mem_ctrl.dram.perBankWrBursts::12          117                       # Per bank write bursts (Count)
system.mem_ctrl.dram.perBankWrBursts::13          128                       # Per bank write bursts (Count)
system.mem_ctrl.dram.perBankWrBursts::14          163                       # Per bank write bursts (Count)
system.mem_ctrl.dram.perBankWrBursts::15          155                       # Per bank write bursts (Count)
system.mem_ctrl.dram.totQLat                131466750                       # Total ticks spent queuing (Tick)
system.mem_ctrl.dram.totBusLat              137655000                       # Total ticks spent in databus transfers (Tick)
system.mem_ctrl.dram.totMemAccLat           647673000                       # Total ticks spent from burst creation until serviced by the DRAM (Tick)
system.mem_ctrl.dram.avgQLat                  4775.23                       # Average queueing delay per DRAM burst ((Tick/Count))
system.mem_ctrl.dram.avgBusLat                5000.00                       # Average bus latency per DRAM burst ((Tick/Count))
system.mem_ctrl.dram.avgMemAccLat            23525.23                       # Average memory access latency per DRAM burst ((Tick/Count))
system.mem_ctrl.dram.readRowHits                24746                       # Number of row buffer hits during reads (Count)
system.mem_ctrl.dram.writeRowHits                 603                       # Number of row buffer hits during writes (Count)
system.mem_ctrl.dram.readRowHitRate             89.88                       # Row buffer hit rate for reads (Ratio)
system.mem_ctrl.dram.writeRowHitRate            85.17                       # Row buffer hit rate for writes (Ratio)
system.mem_ctrl.dram.bytesPerActivate::samples         2893                       # Bytes accessed per row activation (Byte)
system.mem_ctrl.dram.bytesPerActivate::mean   625.576218                       # Bytes accessed per row activation (Byte)
system.mem_ctrl.dram.bytesPerActivate::gmean   422.905994                       # Bytes accessed per row activation (Byte)
system.mem_ctrl.dram.bytesPerActivate::stdev   402.689594                       # Bytes accessed per row activation (Byte)
system.mem_ctrl.dram.bytesPerActivate::0-127          441     15.24%     15.24% # Bytes accessed per row activation (Byte)
system.mem_ctrl.dram.bytesPerActivate::128-255          406     14.03%     29.28% # Bytes accessed per row activation (Byte)
system.mem_ctrl.dram.bytesPerActivate::256-383          103      3.56%     32.84% # Bytes accessed per row activation (Byte)
system.mem_ctrl.dram.bytesPerActivate::384-511          160      5.53%     38.37% # Bytes accessed per row activation (Byte)
system.mem_ctrl.dram.bytesPerActivate::512-639          280      9.68%     48.05% # Bytes accessed per row activation (Byte)
system.mem_ctrl.dram.bytesPerActivate::640-767           99      3.42%     51.47% # Bytes accessed per row activation (Byte)
system.mem_ctrl.dram.bytesPerActivate::768-895           20      0.69%     52.16% # Bytes accessed per row activation (Byte)
system.mem_ctrl.dram.bytesPerActivate::896-1023           96      3.32%     55.48% # Bytes accessed per row activation (Byte)
system.mem_ctrl.dram.bytesPerActivate::1024-1151         1288     44.52%    100.00% # Bytes accessed per row activation (Byte)
system.mem_ctrl.dram.bytesPerActivate::total         2893                       # Bytes accessed per row activation (Byte)
system.mem_ctrl.dram.dramBytesRead            1761984                       # Total bytes read (Byte)
system.mem_ctrl.dram.dramBytesWritten           45312                       # Total bytes written (Byte)
system.mem_ctrl.dram.avgRdBW               470.066722                       # Average DRAM read bandwidth in MiBytes/s ((Byte/Second))
system.mem_ctrl.dram.avgWrBW                12.088454                       # Average DRAM write bandwidth in MiBytes/s ((Byte/Second))
system.mem_ctrl.dram.peakBW                  12800.00                       # Theoretical peak bandwidth in MiByte/s ((Byte/Second))
system.mem_ctrl.dram.busUtil                     3.77                       # Data bus utilization in percentage (Ratio)
system.mem_ctrl.dram.busUtilRead                 3.67                       # Data bus utilization in percentage for reads (Ratio)
system.mem_ctrl.dram.busUtilWrite                0.09                       # Data bus utilization in percentage for writes (Ratio)
system.mem_ctrl.dram.pageHitRate                89.77                       # Row buffer hit rate, read and write combined (Ratio)
system.mem_ctrl.dram.power_state.pwrStateResidencyTicks::UNDEFINED   3748370000                       # Cumulative time (in ticks) in various power states (Tick)
system.mem_ctrl.dram.rank0.actEnergy          9831780                       # Energy for activate commands per rank (pJ) (Joule)
system.mem_ctrl.dram.rank0.preEnergy          5229510                       # Energy for precharge commands per rank (pJ) (Joule)
system.mem_ctrl.dram.rank0.readEnergy        97303920                       # Energy for read commands per rank (pJ) (Joule)
system.mem_ctrl.dram.rank0.writeEnergy         339300                       # Energy for write commands per rank (pJ) (Joule)
system.mem_ctrl.dram.rank0.refreshEnergy 296256480.000000                       # Energy for refresh commands per rank (pJ) (Joule)
system.mem_ctrl.dram.rank0.actBackEnergy    911851230                       # Energy for active background per rank (pJ) (Joule)
system.mem_ctrl.dram.rank0.preBackEnergy    671499360                       # Energy for precharge background per rank (pJ) (Joule)
system.mem_ctrl.dram.rank0.actPowerDownEnergy            0                       # Energy for active power-down per rank (pJ) (Joule)
system.mem_ctrl.dram.rank0.prePowerDownEnergy            0                       # Energy for precharge power-down per rank (pJ) (Joule)
system.mem_ctrl.dram.rank0.selfRefreshEnergy            0                       # Energy for self refresh per rank (pJ) (Joule)
system.mem_ctrl.dram.rank0.totalEnergy     1992311580                       # Total energy per rank (pJ) (Joule)
system.mem_ctrl.dram.rank0.averagePower    531.514119                       # Core power per rank (mW) (Watt)
system.mem_ctrl.dram.rank0.totalIdleTime            0                       # Total Idle time Per DRAM Rank (Tick)
system.mem_ctrl.dram.rank0.pwrStateTime::IDLE   1731310750                       # Time in different power states (Tick)
system.mem_ctrl.dram.rank0.pwrStateTime::REF    125320000                       # Time in different power states (Tick)
system.mem_ctrl.dram.rank0.pwrStateTime::SREF            0                       # Time in different power states (Tick)
system.mem_ctrl.dram.rank0.pwrStateTime::PRE_PDN            0                       # Time in different power states (Tick)
system.mem_ctrl.dram.rank0.pwrStateTime::ACT   1891739250                       # Time in different power states (Tick)
system.mem_ctrl.dram.rank0.pwrStateTime::ACT_PDN            0                       # Time in different power states (Tick)
system.mem_ctrl.dram.rank1.actEnergy         10802820                       # Energy for activate commands per rank (pJ) (Joule)
system.mem_ctrl.dram.rank1.preEnergy          5749425                       # Energy for precharge commands per rank (pJ) (Joule)
system.mem_ctrl.dram.rank1.readEnergy        99267420                       # Energy for read commands per rank (pJ) (Joule)
system.mem_ctrl.dram.rank1.writeEnergy        3356460                       # Energy for write commands per rank (pJ) (Joule)
system.mem_ctrl.dram.rank1.refreshEnergy 296256480.000000                       # Energy for refresh commands per rank (pJ) (Joule)
system.mem_ctrl.dram.rank1.actBackEnergy    935757600                       # Energy for active background per rank (pJ) (Joule)
system.mem_ctrl.dram.rank1.preBackEnergy    651367680                       # Energy for precharge background per rank (pJ) (Joule)
system.mem_ctrl.dram.rank1.actPowerDownEnergy            0                       # Energy for active power-down per rank (pJ) (Joule)
system.mem_ctrl.dram.rank1.prePowerDownEnergy            0                       # Energy for precharge power-down per rank (pJ) (Joule)
system.mem_ctrl.dram.rank1.selfRefreshEnergy            0                       # Energy for self refresh per rank (pJ) (Joule)
system.mem_ctrl.dram.rank1.totalEnergy     2002557885                       # Total energy per rank (pJ) (Joule)
system.mem_ctrl.dram.rank1.averagePower    534.247656                       # Core power per rank (mW) (Watt)
system.mem_ctrl.dram.rank1.totalIdleTime            0                       # Total Idle time Per DRAM Rank (Tick)
system.mem_ctrl.dram.rank1.pwrStateTime::IDLE   1678585500                       # Time in different power states (Tick)
system.mem_ctrl.dram.rank1.pwrStateTime::REF    125320000                       # Time in different power states (Tick)
system.mem_ctrl.dram.rank1.pwrStateTime::SREF            0                       # Time in different power states (Tick)
system.mem_ctrl.dram.rank1.pwrStateTime::PRE_PDN            0                       # Time in different power states (Tick)
system.mem_ctrl.dram.rank1.pwrStateTime::ACT   1944464500                       # Time in different power states (Tick)
system.mem_ctrl.dram.rank1.pwrStateTime::ACT_PDN            0                       # Time in different power states (Tick)
system.mem_ctrl.power_state.pwrStateResidencyTicks::UNDEFINED   3748370000                       # Cumulative time (in ticks) in various power states (Tick)
system.membus.transDist::ReadResp               27483                       # Transaction distribution (Count)
system.membus.transDist::WritebackDirty           711                       # Transaction distribution (Count)
system.membus.transDist::CleanEvict             26925                       # Transaction distribution (Count)
system.membus.transDist::ReadExReq                 91                       # Transaction distribution (Count)
system.membus.transDist::ReadExResp                91                       # Transaction distribution (Count)
system.membus.transDist::ReadSharedReq          27483                       # Transaction distribution (Count)
system.membus.pktCount_system.l2_cache.mem_side_port::system.mem_ctrl.port        82784                       # Packet count per connected requestor and responder (Count)
system.membus.pktCount_system.l2_cache.mem_side_port::total        82784                       # Packet count per connected requestor and responder (Count)
system.membus.pktCount::total                   82784                       # Packet count per connected requestor and responder (Count)
system.membus.pktSize_system.l2_cache.mem_side_port::system.mem_ctrl.port      1810240                       # Cumulative packet size per connected requestor and responder (Byte)
system.membus.pktSize_system.l2_cache.mem_side_port::total      1810240                       # Cumulative packet size per connected requestor and responder (Byte)
system.membus.pktSize::total                  1810240                       # Cumulative packet size per connected requestor and responder (Byte)
system.membus.snoops                                0                       # Total snoops (Count)
system.membus.snoopTraffic                          0                       # Total snoop traffic (Byte)
system.membus.snoopFanout::samples              27574                       # Request fanout histogram (Count)
system.membus.snoopFanout::mean                     0                       # Request fanout histogram (Count)
system.membus.snoopFanout::stdev                    0                       # Request fanout histogram (Count)
system.membus.snoopFanout::underflows               0      0.00%      0.00% # Request fanout histogram (Count)
system.membus.snoopFanout::0                    27574    100.00%    100.00% # Request fanout histogram (Count)
system.membus.snoopFanout::1                        0      0.00%    100.00% # Request fanout histogram (Count)
system.membus.snoopFanout::overflows                0      0.00%    100.00% # Request fanout histogram (Count)
system.membus.snoopFanout::min_value                0                       # Request fanout histogram (Count)
system.membus.snoopFanout::max_value                0                       # Request fanout histogram (Count)
system.membus.snoopFanout::total                27574                       # Request fanout histogram (Count)
system.membus.power_state.pwrStateResidencyTicks::UNDEFINED   3748370000                       # Cumulative time (in ticks) in various power states (Tick)
system.membus.reqLayer2.occupancy            58054000                       # Layer occupancy (ticks) (Tick)
system.membus.reqLayer2.utilization               0.0                       # Layer utilization (Ratio)
system.membus.respLayer2.occupancy          145496000                       # Layer occupancy (ticks) (Tick)
system.membus.respLayer2.utilization              0.0                       # Layer utilization (Ratio)
system.membus.snoop_filter.totRequests          55210                       # Total number of requests made to the snoop filter. (Count)
system.membus.snoop_filter.hitSingleRequests        27636                       # Number of requests hitting in the snoop filter with a single holder of the requested data. (Count)
system.membus.snoop_filter.hitMultiRequests            0                       # Number of requests hitting in the snoop filter with multiple (>1) holders of the requested data. (Count)
system.membus.snoop_filter.totSnoops                0                       # Total number of snoops made to the snoop filter. (Count)
system.membus.snoop_filter.hitSingleSnoops            0                       # Number of snoops hitting in the snoop filter with a single holder of the requested data. (Count)
system.membus.snoop_filter.hitMultiSnoops            0                       # Number of snoops hitting in the snoop filter with multiple (>1) holders of the requested data. (Count)
system.workload.inst.arm                            0                       # number of arm instructions executed (Count)
system.workload.inst.quiesce                        0                       # number of quiesce instructions executed (Count)
system.cpu.idleCycles                         1627041                       # Total number of cycles that the object has spent stopped (Unspecified)
system.cpu.tickCycles                         2121329                       # Number of cycles that the object actually ticked (Unspecified)

---------- End Simulation Statistics   ----------
