
---------- Begin Simulation Statistics ----------
simSeconds                                   1.038928                       # Number of seconds simulated (Second)
simTicks                                 1038928202000                       # Number of ticks simulated (Tick)
finalTick                                1038928202000                       # Number of ticks from beginning of simulation (restored from checkpoints and never reset) (Tick)
simFreq                                  1000000000000                       # The number of ticks per simulated second ((Tick/Second))
hostSeconds                                   5459.17                       # Real time elapsed on the host (Second)
hostTickRate                                190308769                       # The number of ticks simulated per host second (ticks/s) ((Tick/Second))
hostMemory                                    9383188                       # Number of bytes of host memory used (Byte)
simInsts                                   1330424986                       # Number of instructions simulated (Count)
simOps                                     2382637517                       # Number of ops (including micro ops) simulated (Count)
hostInstRate                                   243705                       # Simulator instruction rate (inst/s) ((Count/Second))
hostOpRate                                     436447                       # Simulator op (including micro ops) rate (op/s) ((Count/Second))
system.clk_domain.clock                          1000                       # Clock period in ticks (Tick)
system.clk_domain.voltage_domain.voltage            1                       # Voltage in Volts (Volt)
system.cpu.numCycles                       1038928203                       # Number of cpu cycles simulated (Cycle)
system.cpu.cpi                               0.780899                       # CPI: cycles per instruction (core level) ((Cycle/Count))
system.cpu.ipc                               1.280575                       # IPC: instructions per cycle (core level) ((Count/Cycle))
system.cpu.numWorkItemsStarted                      0                       # Number of work items this cpu started (Count)
system.cpu.numWorkItemsCompleted                    0                       # Number of work items this cpu completed (Count)
system.cpu.instsAdded                      2585067666                       # Number of instructions added to the IQ (excludes non-spec) (Count)
system.cpu.nonSpecInstsAdded                     5211                       # Number of non-speculative instructions added to the IQ (Count)
system.cpu.instsIssued                     2569717185                       # Number of instructions issued (Count)
system.cpu.squashedInstsIssued                 363028                       # Number of squashed instructions issued (Count)
system.cpu.squashedInstsExamined            202435349                       # Number of squashed instructions iterated over during squash; mainly for profiling (Count)
system.cpu.squashedOperandsExamined          84364542                       # Number of squashed operands that are examined and possibly removed from graph (Count)
system.cpu.squashedNonSpecRemoved                 997                       # Number of squashed non-spec instructions that were removed (Count)
system.cpu.numIssuedDist::samples          1038298754                       # Number of insts issued each cycle (Count)
system.cpu.numIssuedDist::mean               2.474930                       # Number of insts issued each cycle (Count)
system.cpu.numIssuedDist::stdev              2.868886                       # Number of insts issued each cycle (Count)
system.cpu.numIssuedDist::underflows                0      0.00%      0.00% # Number of insts issued each cycle (Count)
system.cpu.numIssuedDist::0                 477340821     45.97%     45.97% # Number of insts issued each cycle (Count)
system.cpu.numIssuedDist::1                  85072825      8.19%     54.17% # Number of insts issued each cycle (Count)
system.cpu.numIssuedDist::2                  50134048      4.83%     59.00% # Number of insts issued each cycle (Count)
system.cpu.numIssuedDist::3                  71470570      6.88%     65.88% # Number of insts issued each cycle (Count)
system.cpu.numIssuedDist::4                  62845091      6.05%     71.93% # Number of insts issued each cycle (Count)
system.cpu.numIssuedDist::5                  59199573      5.70%     77.63% # Number of insts issued each cycle (Count)
system.cpu.numIssuedDist::6                  78825384      7.59%     85.22% # Number of insts issued each cycle (Count)
system.cpu.numIssuedDist::7                  77649515      7.48%     92.70% # Number of insts issued each cycle (Count)
system.cpu.numIssuedDist::8                  75760927      7.30%    100.00% # Number of insts issued each cycle (Count)
system.cpu.numIssuedDist::overflows                 0      0.00%    100.00% # Number of insts issued each cycle (Count)
system.cpu.numIssuedDist::min_value                 0                       # Number of insts issued each cycle (Count)
system.cpu.numIssuedDist::max_value                 8                       # Number of insts issued each cycle (Count)
system.cpu.numIssuedDist::total            1038298754                       # Number of insts issued each cycle (Count)
system.cpu.statFuBusy::No_OpClass                   0      0.00%      0.00% # attempts to use FU when none available (Count)
system.cpu.statFuBusy::IntAlu                68880167     90.05%     90.05% # attempts to use FU when none available (Count)
system.cpu.statFuBusy::IntMult                      0      0.00%     90.05% # attempts to use FU when none available (Count)
system.cpu.statFuBusy::IntDiv                       0      0.00%     90.05% # attempts to use FU when none available (Count)
system.cpu.statFuBusy::FloatAdd                     0      0.00%     90.05% # attempts to use FU when none available (Count)
system.cpu.statFuBusy::FloatCmp                     0      0.00%     90.05% # attempts to use FU when none available (Count)
system.cpu.statFuBusy::FloatCvt                     0      0.00%     90.05% # attempts to use FU when none available (Count)
system.cpu.statFuBusy::FloatMult                    0      0.00%     90.05% # attempts to use FU when none available (Count)
system.cpu.statFuBusy::FloatMultAcc                 0      0.00%     90.05% # attempts to use FU when none available (Count)
system.cpu.statFuBusy::FloatDiv                     0      0.00%     90.05% # attempts to use FU when none available (Count)
system.cpu.statFuBusy::FloatMisc                    0      0.00%     90.05% # attempts to use FU when none available (Count)
system.cpu.statFuBusy::FloatSqrt                    0      0.00%     90.05% # attempts to use FU when none available (Count)
system.cpu.statFuBusy::SimdAdd                      2      0.00%     90.05% # attempts to use FU when none available (Count)
system.cpu.statFuBusy::SimdAddAcc                   0      0.00%     90.05% # attempts to use FU when none available (Count)
system.cpu.statFuBusy::SimdAlu                    135      0.00%     90.05% # attempts to use FU when none available (Count)
system.cpu.statFuBusy::SimdCmp                      0      0.00%     90.05% # attempts to use FU when none available (Count)
system.cpu.statFuBusy::SimdCvt                    231      0.00%     90.05% # attempts to use FU when none available (Count)
system.cpu.statFuBusy::SimdMisc                    19      0.00%     90.05% # attempts to use FU when none available (Count)
system.cpu.statFuBusy::SimdMult                     0      0.00%     90.05% # attempts to use FU when none available (Count)
system.cpu.statFuBusy::SimdMultAcc                  0      0.00%     90.05% # attempts to use FU when none available (Count)
system.cpu.statFuBusy::SimdMatMultAcc               0      0.00%     90.05% # attempts to use FU when none available (Count)
system.cpu.statFuBusy::SimdShift                   88      0.00%     90.05% # attempts to use FU when none available (Count)
system.cpu.statFuBusy::SimdShiftAcc                 0      0.00%     90.05% # attempts to use FU when none available (Count)
system.cpu.statFuBusy::SimdDiv                      0      0.00%     90.05% # attempts to use FU when none available (Count)
system.cpu.statFuBusy::SimdSqrt                     0      0.00%     90.05% # attempts to use FU when none available (Count)
system.cpu.statFuBusy::SimdFloatAdd                 0      0.00%     90.05% # attempts to use FU when none available (Count)
system.cpu.statFuBusy::SimdFloatAlu                 0      0.00%     90.05% # attempts to use FU when none available (Count)
system.cpu.statFuBusy::SimdFloatCmp                 0      0.00%     90.05% # attempts to use FU when none available (Count)
system.cpu.statFuBusy::SimdFloatCvt                 0      0.00%     90.05% # attempts to use FU when none available (Count)
system.cpu.statFuBusy::SimdFloatDiv                 0      0.00%     90.05% # attempts to use FU when none available (Count)
system.cpu.statFuBusy::SimdFloatMisc                0      0.00%     90.05% # attempts to use FU when none available (Count)
system.cpu.statFuBusy::SimdFloatMult                0      0.00%     90.05% # attempts to use FU when none available (Count)
system.cpu.statFuBusy::SimdFloatMultAcc             0      0.00%     90.05% # attempts to use FU when none available (Count)
system.cpu.statFuBusy::SimdFloatMatMultAcc            0      0.00%     90.05% # attempts to use FU when none available (Count)
system.cpu.statFuBusy::SimdFloatSqrt                0      0.00%     90.05% # attempts to use FU when none available (Count)
system.cpu.statFuBusy::SimdReduceAdd                0      0.00%     90.05% # attempts to use FU when none available (Count)
system.cpu.statFuBusy::SimdReduceAlu                0      0.00%     90.05% # attempts to use FU when none available (Count)
system.cpu.statFuBusy::SimdReduceCmp                0      0.00%     90.05% # attempts to use FU when none available (Count)
system.cpu.statFuBusy::SimdFloatReduceAdd            0      0.00%     90.05% # attempts to use FU when none available (Count)
system.cpu.statFuBusy::SimdFloatReduceCmp            0      0.00%     90.05% # attempts to use FU when none available (Count)
system.cpu.statFuBusy::SimdAes                      0      0.00%     90.05% # attempts to use FU when none available (Count)
system.cpu.statFuBusy::SimdAesMix                   0      0.00%     90.05% # attempts to use FU when none available (Count)
system.cpu.statFuBusy::SimdSha1Hash                 0      0.00%     90.05% # attempts to use FU when none available (Count)
system.cpu.statFuBusy::SimdSha1Hash2                0      0.00%     90.05% # attempts to use FU when none available (Count)
system.cpu.statFuBusy::SimdSha256Hash               0      0.00%     90.05% # attempts to use FU when none available (Count)
system.cpu.statFuBusy::SimdSha256Hash2              0      0.00%     90.05% # attempts to use FU when none available (Count)
system.cpu.statFuBusy::SimdShaSigma2                0      0.00%     90.05% # attempts to use FU when none available (Count)
system.cpu.statFuBusy::SimdShaSigma3                0      0.00%     90.05% # attempts to use FU when none available (Count)
system.cpu.statFuBusy::SimdPredAlu                  0      0.00%     90.05% # attempts to use FU when none available (Count)
system.cpu.statFuBusy::Matrix                       0      0.00%     90.05% # attempts to use FU when none available (Count)
system.cpu.statFuBusy::MatrixMov                    0      0.00%     90.05% # attempts to use FU when none available (Count)
system.cpu.statFuBusy::MatrixOP                     0      0.00%     90.05% # attempts to use FU when none available (Count)
system.cpu.statFuBusy::MemRead                4472707      5.85%     95.89% # attempts to use FU when none available (Count)
system.cpu.statFuBusy::MemWrite               2956840      3.87%     99.76% # attempts to use FU when none available (Count)
system.cpu.statFuBusy::FloatMemRead               674      0.00%     99.76% # attempts to use FU when none available (Count)
system.cpu.statFuBusy::FloatMemWrite           183622      0.24%    100.00% # attempts to use FU when none available (Count)
system.cpu.statFuBusy::IprAccess                    0      0.00%    100.00% # attempts to use FU when none available (Count)
system.cpu.statFuBusy::InstPrefetch                 0      0.00%    100.00% # attempts to use FU when none available (Count)
system.cpu.statFuBusy::SimdUnitStrideLoad            0      0.00%    100.00% # attempts to use FU when none available (Count)
system.cpu.statFuBusy::SimdUnitStrideStore            0      0.00%    100.00% # attempts to use FU when none available (Count)
system.cpu.statFuBusy::SimdUnitStrideMaskLoad            0      0.00%    100.00% # attempts to use FU when none available (Count)
system.cpu.statFuBusy::SimdUnitStrideMaskStore            0      0.00%    100.00% # attempts to use FU when none available (Count)
system.cpu.statFuBusy::SimdStridedLoad              0      0.00%    100.00% # attempts to use FU when none available (Count)
system.cpu.statFuBusy::SimdStridedStore             0      0.00%    100.00% # attempts to use FU when none available (Count)
system.cpu.statFuBusy::SimdIndexedLoad              0      0.00%    100.00% # attempts to use FU when none available (Count)
system.cpu.statFuBusy::SimdIndexedStore             0      0.00%    100.00% # attempts to use FU when none available (Count)
system.cpu.statFuBusy::SimdWholeRegisterLoad            0      0.00%    100.00% # attempts to use FU when none available (Count)
system.cpu.statFuBusy::SimdWholeRegisterStore            0      0.00%    100.00% # attempts to use FU when none available (Count)
system.cpu.statFuBusy::SimdUnitStrideFaultOnlyFirstLoad            0      0.00%    100.00% # attempts to use FU when none available (Count)
system.cpu.statFuBusy::SimdUnitStrideSegmentedLoad            0      0.00%    100.00% # attempts to use FU when none available (Count)
system.cpu.statFuBusy::SimdUnitStrideSegmentedStore            0      0.00%    100.00% # attempts to use FU when none available (Count)
system.cpu.statFuBusy::SimdExt                      0      0.00%    100.00% # attempts to use FU when none available (Count)
system.cpu.statFuBusy::SimdFloatExt                 0      0.00%    100.00% # attempts to use FU when none available (Count)
system.cpu.statFuBusy::SimdConfig                   0      0.00%    100.00% # attempts to use FU when none available (Count)
system.cpu.statIssuedInstType_0::No_OpClass     26618508      1.04%      1.04% # Number of instructions issued per FU type, per thread (Count)
system.cpu.statIssuedInstType_0::IntAlu    1891503591     73.61%     74.64% # Number of instructions issued per FU type, per thread (Count)
system.cpu.statIssuedInstType_0::IntMult          371      0.00%     74.64% # Number of instructions issued per FU type, per thread (Count)
system.cpu.statIssuedInstType_0::IntDiv      45635771      1.78%     76.42% # Number of instructions issued per FU type, per thread (Count)
system.cpu.statIssuedInstType_0::FloatAdd      8888467      0.35%     76.77% # Number of instructions issued per FU type, per thread (Count)
system.cpu.statIssuedInstType_0::FloatCmp            0      0.00%     76.77% # Number of instructions issued per FU type, per thread (Count)
system.cpu.statIssuedInstType_0::FloatCvt         1280      0.00%     76.77% # Number of instructions issued per FU type, per thread (Count)
system.cpu.statIssuedInstType_0::FloatMult            0      0.00%     76.77% # Number of instructions issued per FU type, per thread (Count)
system.cpu.statIssuedInstType_0::FloatMultAcc            0      0.00%     76.77% # Number of instructions issued per FU type, per thread (Count)
system.cpu.statIssuedInstType_0::FloatDiv            0      0.00%     76.77% # Number of instructions issued per FU type, per thread (Count)
system.cpu.statIssuedInstType_0::FloatMisc            0      0.00%     76.77% # Number of instructions issued per FU type, per thread (Count)
system.cpu.statIssuedInstType_0::FloatSqrt            0      0.00%     76.77% # Number of instructions issued per FU type, per thread (Count)
system.cpu.statIssuedInstType_0::SimdAdd         7304      0.00%     76.77% # Number of instructions issued per FU type, per thread (Count)
system.cpu.statIssuedInstType_0::SimdAddAcc            0      0.00%     76.77% # Number of instructions issued per FU type, per thread (Count)
system.cpu.statIssuedInstType_0::SimdAlu      9478801      0.37%     77.13% # Number of instructions issued per FU type, per thread (Count)
system.cpu.statIssuedInstType_0::SimdCmp            7      0.00%     77.13% # Number of instructions issued per FU type, per thread (Count)
system.cpu.statIssuedInstType_0::SimdCvt        16230      0.00%     77.13% # Number of instructions issued per FU type, per thread (Count)
system.cpu.statIssuedInstType_0::SimdMisc     11170992      0.43%     77.57% # Number of instructions issued per FU type, per thread (Count)
system.cpu.statIssuedInstType_0::SimdMult            0      0.00%     77.57% # Number of instructions issued per FU type, per thread (Count)
system.cpu.statIssuedInstType_0::SimdMultAcc            0      0.00%     77.57% # Number of instructions issued per FU type, per thread (Count)
system.cpu.statIssuedInstType_0::SimdMatMultAcc            0      0.00%     77.57% # Number of instructions issued per FU type, per thread (Count)
system.cpu.statIssuedInstType_0::SimdShift         4077      0.00%     77.57% # Number of instructions issued per FU type, per thread (Count)
system.cpu.statIssuedInstType_0::SimdShiftAcc            0      0.00%     77.57% # Number of instructions issued per FU type, per thread (Count)
system.cpu.statIssuedInstType_0::SimdDiv            0      0.00%     77.57% # Number of instructions issued per FU type, per thread (Count)
system.cpu.statIssuedInstType_0::SimdSqrt            0      0.00%     77.57% # Number of instructions issued per FU type, per thread (Count)
system.cpu.statIssuedInstType_0::SimdFloatAdd          115      0.00%     77.57% # Number of instructions issued per FU type, per thread (Count)
system.cpu.statIssuedInstType_0::SimdFloatAlu            0      0.00%     77.57% # Number of instructions issued per FU type, per thread (Count)
system.cpu.statIssuedInstType_0::SimdFloatCmp            0      0.00%     77.57% # Number of instructions issued per FU type, per thread (Count)
system.cpu.statIssuedInstType_0::SimdFloatCvt          473      0.00%     77.57% # Number of instructions issued per FU type, per thread (Count)
system.cpu.statIssuedInstType_0::SimdFloatDiv           73      0.00%     77.57% # Number of instructions issued per FU type, per thread (Count)
system.cpu.statIssuedInstType_0::SimdFloatMisc            0      0.00%     77.57% # Number of instructions issued per FU type, per thread (Count)
system.cpu.statIssuedInstType_0::SimdFloatMult           40      0.00%     77.57% # Number of instructions issued per FU type, per thread (Count)
system.cpu.statIssuedInstType_0::SimdFloatMultAcc            0      0.00%     77.57% # Number of instructions issued per FU type, per thread (Count)
system.cpu.statIssuedInstType_0::SimdFloatMatMultAcc            0      0.00%     77.57% # Number of instructions issued per FU type, per thread (Count)
system.cpu.statIssuedInstType_0::SimdFloatSqrt            0      0.00%     77.57% # Number of instructions issued per FU type, per thread (Count)
system.cpu.statIssuedInstType_0::SimdReduceAdd            0      0.00%     77.57% # Number of instructions issued per FU type, per thread (Count)
system.cpu.statIssuedInstType_0::SimdReduceAlu            0      0.00%     77.57% # Number of instructions issued per FU type, per thread (Count)
system.cpu.statIssuedInstType_0::SimdReduceCmp            0      0.00%     77.57% # Number of instructions issued per FU type, per thread (Count)
system.cpu.statIssuedInstType_0::SimdFloatReduceAdd            0      0.00%     77.57% # Number of instructions issued per FU type, per thread (Count)
system.cpu.statIssuedInstType_0::SimdFloatReduceCmp            0      0.00%     77.57% # Number of instructions issued per FU type, per thread (Count)
system.cpu.statIssuedInstType_0::SimdAes            0      0.00%     77.57% # Number of instructions issued per FU type, per thread (Count)
system.cpu.statIssuedInstType_0::SimdAesMix            0      0.00%     77.57% # Number of instructions issued per FU type, per thread (Count)
system.cpu.statIssuedInstType_0::SimdSha1Hash            0      0.00%     77.57% # Number of instructions issued per FU type, per thread (Count)
system.cpu.statIssuedInstType_0::SimdSha1Hash2            0      0.00%     77.57% # Number of instructions issued per FU type, per thread (Count)
system.cpu.statIssuedInstType_0::SimdSha256Hash            0      0.00%     77.57% # Number of instructions issued per FU type, per thread (Count)
system.cpu.statIssuedInstType_0::SimdSha256Hash2            0      0.00%     77.57% # Number of instructions issued per FU type, per thread (Count)
system.cpu.statIssuedInstType_0::SimdShaSigma2            0      0.00%     77.57% # Number of instructions issued per FU type, per thread (Count)
system.cpu.statIssuedInstType_0::SimdShaSigma3            0      0.00%     77.57% # Number of instructions issued per FU type, per thread (Count)
system.cpu.statIssuedInstType_0::SimdPredAlu            0      0.00%     77.57% # Number of instructions issued per FU type, per thread (Count)
system.cpu.statIssuedInstType_0::Matrix             0      0.00%     77.57% # Number of instructions issued per FU type, per thread (Count)
system.cpu.statIssuedInstType_0::MatrixMov            0      0.00%     77.57% # Number of instructions issued per FU type, per thread (Count)
system.cpu.statIssuedInstType_0::MatrixOP            0      0.00%     77.57% # Number of instructions issued per FU type, per thread (Count)
system.cpu.statIssuedInstType_0::MemRead    332908507     12.96%     90.52% # Number of instructions issued per FU type, per thread (Count)
system.cpu.statIssuedInstType_0::MemWrite    203460040      7.92%     98.44% # Number of instructions issued per FU type, per thread (Count)
system.cpu.statIssuedInstType_0::FloatMemRead      7100018      0.28%     98.72% # Number of instructions issued per FU type, per thread (Count)
system.cpu.statIssuedInstType_0::FloatMemWrite     32922520      1.28%    100.00% # Number of instructions issued per FU type, per thread (Count)
system.cpu.statIssuedInstType_0::IprAccess            0      0.00%    100.00% # Number of instructions issued per FU type, per thread (Count)
system.cpu.statIssuedInstType_0::InstPrefetch            0      0.00%    100.00% # Number of instructions issued per FU type, per thread (Count)
system.cpu.statIssuedInstType_0::SimdUnitStrideLoad            0      0.00%    100.00% # Number of instructions issued per FU type, per thread (Count)
system.cpu.statIssuedInstType_0::SimdUnitStrideStore            0      0.00%    100.00% # Number of instructions issued per FU type, per thread (Count)
system.cpu.statIssuedInstType_0::SimdUnitStrideMaskLoad            0      0.00%    100.00% # Number of instructions issued per FU type, per thread (Count)
system.cpu.statIssuedInstType_0::SimdUnitStrideMaskStore            0      0.00%    100.00% # Number of instructions issued per FU type, per thread (Count)
system.cpu.statIssuedInstType_0::SimdStridedLoad            0      0.00%    100.00% # Number of instructions issued per FU type, per thread (Count)
system.cpu.statIssuedInstType_0::SimdStridedStore            0      0.00%    100.00% # Number of instructions issued per FU type, per thread (Count)
system.cpu.statIssuedInstType_0::SimdIndexedLoad            0      0.00%    100.00% # Number of instructions issued per FU type, per thread (Count)
system.cpu.statIssuedInstType_0::SimdIndexedStore            0      0.00%    100.00% # Number of instructions issued per FU type, per thread (Count)
system.cpu.statIssuedInstType_0::SimdWholeRegisterLoad            0      0.00%    100.00% # Number of instructions issued per FU type, per thread (Count)
system.cpu.statIssuedInstType_0::SimdWholeRegisterStore            0      0.00%    100.00% # Number of instructions issued per FU type, per thread (Count)
system.cpu.statIssuedInstType_0::SimdUnitStrideFaultOnlyFirstLoad            0      0.00%    100.00% # Number of instructions issued per FU type, per thread (Count)
system.cpu.statIssuedInstType_0::SimdUnitStrideSegmentedLoad            0      0.00%    100.00% # Number of instructions issued per FU type, per thread (Count)
system.cpu.statIssuedInstType_0::SimdUnitStrideSegmentedStore            0      0.00%    100.00% # Number of instructions issued per FU type, per thread (Count)
system.cpu.statIssuedInstType_0::SimdExt            0      0.00%    100.00% # Number of instructions issued per FU type, per thread (Count)
system.cpu.statIssuedInstType_0::SimdFloatExt            0      0.00%    100.00% # Number of instructions issued per FU type, per thread (Count)
system.cpu.statIssuedInstType_0::SimdConfig            0      0.00%    100.00% # Number of instructions issued per FU type, per thread (Count)
system.cpu.statIssuedInstType_0::total     2569717185                       # Number of instructions issued per FU type, per thread (Count)
system.cpu.issueRate                         2.473431                       # Inst issue rate ((Count/Cycle))
system.cpu.fuBusy                            76494485                       # FU busy when requested (Count)
system.cpu.fuBusyRate                        0.029768                       # FU busy rate (busy events/executed inst) ((Count/Count))
system.cpu.intInstQueueReads               6088355335                       # Number of integer instruction queue reads (Count)
system.cpu.intInstQueueWrites              2704413474                       # Number of integer instruction queue writes (Count)
system.cpu.intInstQueueWakeupAccesses      2484492999                       # Number of integer instruction queue wakeup accesses (Count)
system.cpu.fpInstQueueReads                 166235302                       # Number of floating instruction queue reads (Count)
system.cpu.fpInstQueueWrites                 83098452                       # Number of floating instruction queue writes (Count)
system.cpu.fpInstQueueWakeupAccesses         82971614                       # Number of floating instruction queue wakeup accesses (Count)
system.cpu.vecInstQueueReads                        0                       # Number of vector instruction queue reads (Count)
system.cpu.vecInstQueueWrites                       0                       # Number of vector instruction queue writes (Count)
system.cpu.vecInstQueueWakeupAccesses               0                       # Number of vector instruction queue wakeup accesses (Count)
system.cpu.intAluAccesses                  2536383214                       # Number of integer alu accesses (Count)
system.cpu.fpAluAccesses                     83209948                       # Number of floating point alu accesses (Count)
system.cpu.vecAluAccesses                           0                       # Number of vector alu accesses (Count)
system.cpu.numSquashedInsts                    862306                       # Number of squashed instructions skipped in execute (Count)
system.cpu.numSwp                                   0                       # Number of swp insts executed (Count)
system.cpu.timesIdled                           79586                       # Number of times that the entire CPU went into an idle state and unscheduled itself (Count)
system.cpu.idleCycles                          629449                       # Total number of cycles that the CPU has spent unscheduled due to idling (Cycle)
system.cpu.MemDepUnit__0.insertedLoads      342083054                       # Number of loads inserted to the mem dependence unit. (Count)
system.cpu.MemDepUnit__0.insertedStores     236835838                       # Number of stores inserted to the mem dependence unit. (Count)
system.cpu.MemDepUnit__0.conflictingLoads      9544617                       # Number of conflicting loads. (Count)
system.cpu.MemDepUnit__0.conflictingStores      1293368                       # Number of conflicting stores. (Count)
system.cpu.MemDepUnit__1.insertedLoads              0                       # Number of loads inserted to the mem dependence unit. (Count)
system.cpu.MemDepUnit__1.insertedStores             0                       # Number of stores inserted to the mem dependence unit. (Count)
system.cpu.MemDepUnit__1.conflictingLoads            0                       # Number of conflicting loads. (Count)
system.cpu.MemDepUnit__1.conflictingStores            0                       # Number of conflicting stores. (Count)
system.cpu.MemDepUnit__2.insertedLoads              0                       # Number of loads inserted to the mem dependence unit. (Count)
system.cpu.MemDepUnit__2.insertedStores             0                       # Number of stores inserted to the mem dependence unit. (Count)
system.cpu.MemDepUnit__2.conflictingLoads            0                       # Number of conflicting loads. (Count)
system.cpu.MemDepUnit__2.conflictingStores            0                       # Number of conflicting stores. (Count)
system.cpu.MemDepUnit__3.insertedLoads              0                       # Number of loads inserted to the mem dependence unit. (Count)
system.cpu.MemDepUnit__3.insertedStores             0                       # Number of stores inserted to the mem dependence unit. (Count)
system.cpu.MemDepUnit__3.conflictingLoads            0                       # Number of conflicting loads. (Count)
system.cpu.MemDepUnit__3.conflictingStores            0                       # Number of conflicting stores. (Count)
system.cpu.branchPred.lookups_0::NoBranch         2507      0.00%      0.00% # Number of BP lookups (Count)
system.cpu.branchPred.lookups_0::Return      16280469      5.73%      5.73% # Number of BP lookups (Count)
system.cpu.branchPred.lookups_0::CallDirect     19577929      6.89%     12.62% # Number of BP lookups (Count)
system.cpu.branchPred.lookups_0::CallIndirect         1337      0.00%     12.62% # Number of BP lookups (Count)
system.cpu.branchPred.lookups_0::DirectCond    213763946     75.21%     87.83% # Number of BP lookups (Count)
system.cpu.branchPred.lookups_0::DirectUncond     18658594      6.56%     94.39% # Number of BP lookups (Count)
system.cpu.branchPred.lookups_0::IndirectCond            0      0.00%     94.39% # Number of BP lookups (Count)
system.cpu.branchPred.lookups_0::IndirectUncond     15940800      5.61%    100.00% # Number of BP lookups (Count)
system.cpu.branchPred.lookups_0::total      284225582                       # Number of BP lookups (Count)
system.cpu.branchPred.squashes_0::NoBranch         2179      0.01%      0.01% # Number of branches that got squashed (completely removed) as an earlier branch was mispredicted. (Count)
system.cpu.branchPred.squashes_0::Return        27581      0.10%      0.11% # Number of branches that got squashed (completely removed) as an earlier branch was mispredicted. (Count)
system.cpu.branchPred.squashes_0::CallDirect      3325640     11.91%     12.02% # Number of branches that got squashed (completely removed) as an earlier branch was mispredicted. (Count)
system.cpu.branchPred.squashes_0::CallIndirect          733      0.00%     12.02% # Number of branches that got squashed (completely removed) as an earlier branch was mispredicted. (Count)
system.cpu.branchPred.squashes_0::DirectCond     19139187     68.54%     80.56% # Number of branches that got squashed (completely removed) as an earlier branch was mispredicted. (Count)
system.cpu.branchPred.squashes_0::DirectUncond      3155434     11.30%     91.86% # Number of branches that got squashed (completely removed) as an earlier branch was mispredicted. (Count)
system.cpu.branchPred.squashes_0::IndirectCond            0      0.00%     91.86% # Number of branches that got squashed (completely removed) as an earlier branch was mispredicted. (Count)
system.cpu.branchPred.squashes_0::IndirectUncond      2272810      8.14%    100.00% # Number of branches that got squashed (completely removed) as an earlier branch was mispredicted. (Count)
system.cpu.branchPred.squashes_0::total      27923564                       # Number of branches that got squashed (completely removed) as an earlier branch was mispredicted. (Count)
system.cpu.branchPred.corrected_0::NoBranch          572      0.04%      0.04% # Number of branches that got corrected but not yet commited. Branches get corrected by decode or after execute. Also a branch misprediction can be detected out-of-order. Therefore, a corrected branch might not end up beeing committed in case an even earlier branch was mispredicted (Count)
system.cpu.branchPred.corrected_0::Return           15      0.00%      0.04% # Number of branches that got corrected but not yet commited. Branches get corrected by decode or after execute. Also a branch misprediction can be detected out-of-order. Therefore, a corrected branch might not end up beeing committed in case an even earlier branch was mispredicted (Count)
system.cpu.branchPred.corrected_0::CallDirect          786      0.06%      0.10% # Number of branches that got corrected but not yet commited. Branches get corrected by decode or after execute. Also a branch misprediction can be detected out-of-order. Therefore, a corrected branch might not end up beeing committed in case an even earlier branch was mispredicted (Count)
system.cpu.branchPred.corrected_0::CallIndirect          249      0.02%      0.12% # Number of branches that got corrected but not yet commited. Branches get corrected by decode or after execute. Also a branch misprediction can be detected out-of-order. Therefore, a corrected branch might not end up beeing committed in case an even earlier branch was mispredicted (Count)
system.cpu.branchPred.corrected_0::DirectCond      1401494     99.75%     99.86% # Number of branches that got corrected but not yet commited. Branches get corrected by decode or after execute. Also a branch misprediction can be detected out-of-order. Therefore, a corrected branch might not end up beeing committed in case an even earlier branch was mispredicted (Count)
system.cpu.branchPred.corrected_0::DirectUncond          635      0.05%     99.91% # Number of branches that got corrected but not yet commited. Branches get corrected by decode or after execute. Also a branch misprediction can be detected out-of-order. Therefore, a corrected branch might not end up beeing committed in case an even earlier branch was mispredicted (Count)
system.cpu.branchPred.corrected_0::IndirectCond            0      0.00%     99.91% # Number of branches that got corrected but not yet commited. Branches get corrected by decode or after execute. Also a branch misprediction can be detected out-of-order. Therefore, a corrected branch might not end up beeing committed in case an even earlier branch was mispredicted (Count)
system.cpu.branchPred.corrected_0::IndirectUncond         1272      0.09%    100.00% # Number of branches that got corrected but not yet commited. Branches get corrected by decode or after execute. Also a branch misprediction can be detected out-of-order. Therefore, a corrected branch might not end up beeing committed in case an even earlier branch was mispredicted (Count)
system.cpu.branchPred.corrected_0::total      1405023                       # Number of branches that got corrected but not yet commited. Branches get corrected by decode or after execute. Also a branch misprediction can be detected out-of-order. Therefore, a corrected branch might not end up beeing committed in case an even earlier branch was mispredicted (Count)
system.cpu.branchPred.earlyResteers_0::NoBranch            0                       # Number of branches that got redirected after decode. (Count)
system.cpu.branchPred.earlyResteers_0::Return            0                       # Number of branches that got redirected after decode. (Count)
system.cpu.branchPred.earlyResteers_0::CallDirect            0                       # Number of branches that got redirected after decode. (Count)
system.cpu.branchPred.earlyResteers_0::CallIndirect            0                       # Number of branches that got redirected after decode. (Count)
system.cpu.branchPred.earlyResteers_0::DirectCond            0                       # Number of branches that got redirected after decode. (Count)
system.cpu.branchPred.earlyResteers_0::DirectUncond            0                       # Number of branches that got redirected after decode. (Count)
system.cpu.branchPred.earlyResteers_0::IndirectCond            0                       # Number of branches that got redirected after decode. (Count)
system.cpu.branchPred.earlyResteers_0::IndirectUncond            0                       # Number of branches that got redirected after decode. (Count)
system.cpu.branchPred.earlyResteers_0::total            0                       # Number of branches that got redirected after decode. (Count)
system.cpu.branchPred.committed_0::NoBranch          328      0.00%      0.00% # Number of branches finally committed  (Count)
system.cpu.branchPred.committed_0::Return     16252887      6.34%      6.34% # Number of branches finally committed  (Count)
system.cpu.branchPred.committed_0::CallDirect     16252288      6.34%     12.68% # Number of branches finally committed  (Count)
system.cpu.branchPred.committed_0::CallIndirect          604      0.00%     12.68% # Number of branches finally committed  (Count)
system.cpu.branchPred.committed_0::DirectCond    194624759     75.94%     88.62% # Number of branches finally committed  (Count)
system.cpu.branchPred.committed_0::DirectUncond     15503160      6.05%     94.67% # Number of branches finally committed  (Count)
system.cpu.branchPred.committed_0::IndirectCond            0      0.00%     94.67% # Number of branches finally committed  (Count)
system.cpu.branchPred.committed_0::IndirectUncond     13667990      5.33%    100.00% # Number of branches finally committed  (Count)
system.cpu.branchPred.committed_0::total    256302016                       # Number of branches finally committed  (Count)
system.cpu.branchPred.mispredicted_0::NoBranch          328      0.02%      0.02% # Number of committed branches that were mispredicted. (Count)
system.cpu.branchPred.mispredicted_0::Return            0      0.00%      0.02% # Number of committed branches that were mispredicted. (Count)
system.cpu.branchPred.mispredicted_0::CallDirect          489      0.04%      0.06% # Number of committed branches that were mispredicted. (Count)
system.cpu.branchPred.mispredicted_0::CallIndirect          213      0.02%      0.07% # Number of committed branches that were mispredicted. (Count)
system.cpu.branchPred.mispredicted_0::DirectCond      1389448     99.82%     99.89% # Number of committed branches that were mispredicted. (Count)
system.cpu.branchPred.mispredicted_0::DirectUncond          368      0.03%     99.92% # Number of committed branches that were mispredicted. (Count)
system.cpu.branchPred.mispredicted_0::IndirectCond            0      0.00%     99.92% # Number of committed branches that were mispredicted. (Count)
system.cpu.branchPred.mispredicted_0::IndirectUncond         1160      0.08%    100.00% # Number of committed branches that were mispredicted. (Count)
system.cpu.branchPred.mispredicted_0::total      1392006                       # Number of committed branches that were mispredicted. (Count)
system.cpu.branchPred.targetProvider_0::NoTarget    156464867     55.05%     55.05% # The component providing the target for taken branches (Count)
system.cpu.branchPred.targetProvider_0::BTB     95545287     33.62%     88.67% # The component providing the target for taken branches (Count)
system.cpu.branchPred.targetProvider_0::RAS     16280468      5.73%     94.39% # The component providing the target for taken branches (Count)
system.cpu.branchPred.targetProvider_0::Indirect     15934960      5.61%    100.00% # The component providing the target for taken branches (Count)
system.cpu.branchPred.targetProvider_0::total    284225582                       # The component providing the target for taken branches (Count)
system.cpu.branchPred.targetWrong_0::NoBranch       574048     40.93%     40.93% # Number of branches where the target was incorrect or not available at prediction time. (Count)
system.cpu.branchPred.targetWrong_0::Return       828435     59.06%     99.99% # Number of branches where the target was incorrect or not available at prediction time. (Count)
system.cpu.branchPred.targetWrong_0::CallDirect           15      0.00%     99.99% # Number of branches where the target was incorrect or not available at prediction time. (Count)
system.cpu.branchPred.targetWrong_0::CallIndirect          166      0.01%    100.00% # Number of branches where the target was incorrect or not available at prediction time. (Count)
system.cpu.branchPred.targetWrong_0::DirectCond            0      0.00%    100.00% # Number of branches where the target was incorrect or not available at prediction time. (Count)
system.cpu.branchPred.targetWrong_0::DirectUncond            0      0.00%    100.00% # Number of branches where the target was incorrect or not available at prediction time. (Count)
system.cpu.branchPred.targetWrong_0::IndirectCond            0      0.00%    100.00% # Number of branches where the target was incorrect or not available at prediction time. (Count)
system.cpu.branchPred.targetWrong_0::IndirectUncond            0      0.00%    100.00% # Number of branches where the target was incorrect or not available at prediction time. (Count)
system.cpu.branchPred.targetWrong_0::total      1402664                       # Number of branches where the target was incorrect or not available at prediction time. (Count)
system.cpu.branchPred.condPredicted         213766453                       # Number of conditional branches predicted (Count)
system.cpu.branchPred.condPredictedTaken     57313628                       # Number of conditional branches predicted as taken (Count)
system.cpu.branchPred.condIncorrect           1405023                       # Number of conditional branches incorrect (Count)
system.cpu.branchPred.predTakenBTBMiss           1749                       # Number of branches predicted taken but missed in BTB (Count)
system.cpu.branchPred.NotTakenMispredicted       575961                       # Number branches predicted 'not taken' but turned out to be taken (Count)
system.cpu.branchPred.TakenMispredicted        829062                       # Number branches predicted taken but are actually not taken (Count)
system.cpu.branchPred.BTBLookups            284225582                       # Number of BTB lookups (Count)
system.cpu.branchPred.BTBUpdates               573853                       # Number of BTB updates (Count)
system.cpu.branchPred.BTBHits               161873092                       # Number of BTB hits (Count)
system.cpu.branchPred.BTBHitRatio            0.569523                       # BTB Hit Ratio (Ratio)
system.cpu.branchPred.BTBMispredicted            2689                       # Number BTB mispredictions. No target found or target wrong (Count)
system.cpu.branchPred.indirectLookups        15942137                       # Number of indirect predictor lookups. (Count)
system.cpu.branchPred.indirectHits           15934960                       # Number of indirect target hits. (Count)
system.cpu.branchPred.indirectMisses             7177                       # Number of indirect misses. (Count)
system.cpu.branchPred.indirectMispredicted            0                       # Number of mispredicted indirect branches. (Count)
system.cpu.branchPred.btb.lookups::NoBranch         2507      0.00%      0.00% # Number of BTB lookups (Count)
system.cpu.branchPred.btb.lookups::Return     16280469      5.73%      5.73% # Number of BTB lookups (Count)
system.cpu.branchPred.btb.lookups::CallDirect     19577929      6.89%     12.62% # Number of BTB lookups (Count)
system.cpu.branchPred.btb.lookups::CallIndirect         1337      0.00%     12.62% # Number of BTB lookups (Count)
system.cpu.branchPred.btb.lookups::DirectCond    213763946     75.21%     87.83% # Number of BTB lookups (Count)
system.cpu.branchPred.btb.lookups::DirectUncond     18658594      6.56%     94.39% # Number of BTB lookups (Count)
system.cpu.branchPred.btb.lookups::IndirectCond            0      0.00%     94.39% # Number of BTB lookups (Count)
system.cpu.branchPred.btb.lookups::IndirectUncond     15940800      5.61%    100.00% # Number of BTB lookups (Count)
system.cpu.branchPred.btb.lookups::total    284225582                       # Number of BTB lookups (Count)
system.cpu.branchPred.btb.misses::NoBranch          393      0.00%      0.00% # Number of BTB misses (Count)
system.cpu.branchPred.btb.misses::Return     14001833     11.44%     11.44% # Number of BTB misses (Count)
system.cpu.branchPred.btb.misses::CallDirect         1266      0.00%     11.45% # Number of BTB misses (Count)
system.cpu.branchPred.btb.misses::CallIndirect         1337      0.00%     11.45% # Number of BTB misses (Count)
system.cpu.branchPred.btb.misses::DirectCond     92405919     75.52%     86.97% # Number of BTB misses (Count)
system.cpu.branchPred.btb.misses::DirectUncond          942      0.00%     86.97% # Number of BTB misses (Count)
system.cpu.branchPred.btb.misses::IndirectCond            0      0.00%     86.97% # Number of BTB misses (Count)
system.cpu.branchPred.btb.misses::IndirectUncond     15940800     13.03%    100.00% # Number of BTB misses (Count)
system.cpu.branchPred.btb.misses::total     122352490                       # Number of BTB misses (Count)
system.cpu.branchPred.btb.updates::NoBranch            0      0.00%      0.00% # Number of BTB updates (Count)
system.cpu.branchPred.btb.updates::Return            0      0.00%      0.00% # Number of BTB updates (Count)
system.cpu.branchPred.btb.updates::CallDirect          786      0.14%      0.14% # Number of BTB updates (Count)
system.cpu.branchPred.btb.updates::CallIndirect            0      0.00%      0.14% # Number of BTB updates (Count)
system.cpu.branchPred.btb.updates::DirectCond       572432     99.75%     99.89% # Number of BTB updates (Count)
system.cpu.branchPred.btb.updates::DirectUncond          635      0.11%    100.00% # Number of BTB updates (Count)
system.cpu.branchPred.btb.updates::IndirectCond            0      0.00%    100.00% # Number of BTB updates (Count)
system.cpu.branchPred.btb.updates::IndirectUncond            0      0.00%    100.00% # Number of BTB updates (Count)
system.cpu.branchPred.btb.updates::total       573853                       # Number of BTB updates (Count)
system.cpu.branchPred.btb.mispredict::NoBranch            0      0.00%      0.00% # Number of BTB mispredictions. No target found or target wrong. (Count)
system.cpu.branchPred.btb.mispredict::Return            0      0.00%      0.00% # Number of BTB mispredictions. No target found or target wrong. (Count)
system.cpu.branchPred.btb.mispredict::CallDirect          786      0.14%      0.14% # Number of BTB mispredictions. No target found or target wrong. (Count)
system.cpu.branchPred.btb.mispredict::CallIndirect            0      0.00%      0.14% # Number of BTB mispredictions. No target found or target wrong. (Count)
system.cpu.branchPred.btb.mispredict::DirectCond       572432     99.75%     99.89% # Number of BTB mispredictions. No target found or target wrong. (Count)
system.cpu.branchPred.btb.mispredict::DirectUncond          635      0.11%    100.00% # Number of BTB mispredictions. No target found or target wrong. (Count)
system.cpu.branchPred.btb.mispredict::IndirectCond            0      0.00%    100.00% # Number of BTB mispredictions. No target found or target wrong. (Count)
system.cpu.branchPred.btb.mispredict::IndirectUncond            0      0.00%    100.00% # Number of BTB mispredictions. No target found or target wrong. (Count)
system.cpu.branchPred.btb.mispredict::total       573853                       # Number of BTB mispredictions. No target found or target wrong. (Count)
system.cpu.branchPred.btb.power_state.pwrStateResidencyTicks::UNDEFINED 1038928202000                       # Cumulative time (in ticks) in various power states (Tick)
system.cpu.branchPred.indirectBranchPred.lookups     15942137                       # Number of lookups (Count)
system.cpu.branchPred.indirectBranchPred.hits     15934960                       # Number of hits of a tag (Count)
system.cpu.branchPred.indirectBranchPred.misses         7177                       # Number of misses (Count)
system.cpu.branchPred.indirectBranchPred.targetRecords         1521                       # Number of targets that where recorded/installed in the cache (Count)
system.cpu.branchPred.indirectBranchPred.indirectRecords     15943658                       # Number of indirect branches/calls recorded in the indirect hist (Count)
system.cpu.branchPred.indirectBranchPred.speculativeOverflows            1                       # Number of times more than the allowed capacity for speculative branches/calls where in flight and destroy the path history (Count)
system.cpu.branchPred.ras.pushes             19606847                       # Number of times a PC was pushed onto the RAS (Count)
system.cpu.branchPred.ras.pops               19606842                       # Number of times a PC was poped from the RAS (Count)
system.cpu.branchPred.ras.squashes            3353954                       # Number of times the stack operation was squashed due to wrong speculation. (Count)
system.cpu.branchPred.ras.used               16252887                       # Number of times the RAS is the provider (Count)
system.cpu.branchPred.ras.correct            16252887                       # Number of times the RAS is the provider and the prediction is correct (Count)
system.cpu.branchPred.ras.incorrect                 0                       # Number of times the RAS is the provider and the prediction is wrong (Count)
system.cpu.commit.commitSquashedInsts       202375170                       # The number of squashed insts skipped by commit (Count)
system.cpu.commit.commitNonSpecStalls            4214                       # The number of times commit has been forced to stall to communicate backwards (Count)
system.cpu.commit.branchMispredicts           1403826                       # The number of times a branch was mispredicted (Count)
system.cpu.commit.numCommittedDist::samples   1012057762                       # Number of insts commited each cycle (Count)
system.cpu.commit.numCommittedDist::mean     2.354251                       # Number of insts commited each cycle (Count)
system.cpu.commit.numCommittedDist::stdev     3.466732                       # Number of insts commited each cycle (Count)
system.cpu.commit.numCommittedDist::underflows            0      0.00%      0.00% # Number of insts commited each cycle (Count)
system.cpu.commit.numCommittedDist::0       630804581     62.33%     62.33% # Number of insts commited each cycle (Count)
system.cpu.commit.numCommittedDist::1        53140673      5.25%     67.58% # Number of insts commited each cycle (Count)
system.cpu.commit.numCommittedDist::2        13246597      1.31%     68.89% # Number of insts commited each cycle (Count)
system.cpu.commit.numCommittedDist::3        30517184      3.02%     71.90% # Number of insts commited each cycle (Count)
system.cpu.commit.numCommittedDist::4         7929510      0.78%     72.69% # Number of insts commited each cycle (Count)
system.cpu.commit.numCommittedDist::5         6590052      0.65%     73.34% # Number of insts commited each cycle (Count)
system.cpu.commit.numCommittedDist::6         4368536      0.43%     73.77% # Number of insts commited each cycle (Count)
system.cpu.commit.numCommittedDist::7         3112450      0.31%     74.08% # Number of insts commited each cycle (Count)
system.cpu.commit.numCommittedDist::8       262348179     25.92%    100.00% # Number of insts commited each cycle (Count)
system.cpu.commit.numCommittedDist::overflows            0      0.00%    100.00% # Number of insts commited each cycle (Count)
system.cpu.commit.numCommittedDist::min_value            0                       # Number of insts commited each cycle (Count)
system.cpu.commit.numCommittedDist::max_value            8                       # Number of insts commited each cycle (Count)
system.cpu.commit.numCommittedDist::total   1012057762                       # Number of insts commited each cycle (Count)
system.cpu.commit.amos                              0                       # Number of atomic instructions committed (Count)
system.cpu.commit.membars                        2278                       # Number of memory barriers committed (Count)
system.cpu.commit.functionCalls              16252892                       # Number of function calls committed. (Count)
system.cpu.commit.committedInstType_0::No_OpClass     23306503      0.98%      0.98% # Class of committed instruction (Count)
system.cpu.commit.committedInstType_0::IntAlu   1743877185     73.19%     74.17% # Class of committed instruction (Count)
system.cpu.commit.committedInstType_0::IntMult          166      0.00%     74.17% # Class of committed instruction (Count)
system.cpu.commit.committedInstType_0::IntDiv     41178257      1.73%     75.90% # Class of committed instruction (Count)
system.cpu.commit.committedInstType_0::FloatAdd      8883761      0.37%     76.27% # Class of committed instruction (Count)
system.cpu.commit.committedInstType_0::FloatCmp            0      0.00%     76.27% # Class of committed instruction (Count)
system.cpu.commit.committedInstType_0::FloatCvt         1280      0.00%     76.27% # Class of committed instruction (Count)
system.cpu.commit.committedInstType_0::FloatMult            0      0.00%     76.27% # Class of committed instruction (Count)
system.cpu.commit.committedInstType_0::FloatMultAcc            0      0.00%     76.27% # Class of committed instruction (Count)
system.cpu.commit.committedInstType_0::FloatDiv            0      0.00%     76.27% # Class of committed instruction (Count)
system.cpu.commit.committedInstType_0::FloatMisc            0      0.00%     76.27% # Class of committed instruction (Count)
system.cpu.commit.committedInstType_0::FloatSqrt            0      0.00%     76.27% # Class of committed instruction (Count)
system.cpu.commit.committedInstType_0::SimdAdd         6582      0.00%     76.27% # Class of committed instruction (Count)
system.cpu.commit.committedInstType_0::SimdAddAcc            0      0.00%     76.27% # Class of committed instruction (Count)
system.cpu.commit.committedInstType_0::SimdAlu      9469515      0.40%     76.67% # Class of committed instruction (Count)
system.cpu.commit.committedInstType_0::SimdCmp            6      0.00%     76.67% # Class of committed instruction (Count)
system.cpu.commit.committedInstType_0::SimdCvt        13634      0.00%     76.67% # Class of committed instruction (Count)
system.cpu.commit.committedInstType_0::SimdMisc     11167786      0.47%     77.14% # Class of committed instruction (Count)
system.cpu.commit.committedInstType_0::SimdMult            0      0.00%     77.14% # Class of committed instruction (Count)
system.cpu.commit.committedInstType_0::SimdMultAcc            0      0.00%     77.14% # Class of committed instruction (Count)
system.cpu.commit.committedInstType_0::SimdMatMultAcc            0      0.00%     77.14% # Class of committed instruction (Count)
system.cpu.commit.committedInstType_0::SimdShift         2065      0.00%     77.14% # Class of committed instruction (Count)
system.cpu.commit.committedInstType_0::SimdShiftAcc            0      0.00%     77.14% # Class of committed instruction (Count)
system.cpu.commit.committedInstType_0::SimdDiv            0      0.00%     77.14% # Class of committed instruction (Count)
system.cpu.commit.committedInstType_0::SimdSqrt            0      0.00%     77.14% # Class of committed instruction (Count)
system.cpu.commit.committedInstType_0::SimdFloatAdd           76      0.00%     77.14% # Class of committed instruction (Count)
system.cpu.commit.committedInstType_0::SimdFloatAlu            0      0.00%     77.14% # Class of committed instruction (Count)
system.cpu.commit.committedInstType_0::SimdFloatCmp            0      0.00%     77.14% # Class of committed instruction (Count)
system.cpu.commit.committedInstType_0::SimdFloatCvt          379      0.00%     77.14% # Class of committed instruction (Count)
system.cpu.commit.committedInstType_0::SimdFloatDiv           38      0.00%     77.14% # Class of committed instruction (Count)
system.cpu.commit.committedInstType_0::SimdFloatMisc            0      0.00%     77.14% # Class of committed instruction (Count)
system.cpu.commit.committedInstType_0::SimdFloatMult           37      0.00%     77.14% # Class of committed instruction (Count)
system.cpu.commit.committedInstType_0::SimdFloatMultAcc            0      0.00%     77.14% # Class of committed instruction (Count)
system.cpu.commit.committedInstType_0::SimdFloatMatMultAcc            0      0.00%     77.14% # Class of committed instruction (Count)
system.cpu.commit.committedInstType_0::SimdFloatSqrt            0      0.00%     77.14% # Class of committed instruction (Count)
system.cpu.commit.committedInstType_0::SimdReduceAdd            0      0.00%     77.14% # Class of committed instruction (Count)
system.cpu.commit.committedInstType_0::SimdReduceAlu            0      0.00%     77.14% # Class of committed instruction (Count)
system.cpu.commit.committedInstType_0::SimdReduceCmp            0      0.00%     77.14% # Class of committed instruction (Count)
system.cpu.commit.committedInstType_0::SimdFloatReduceAdd            0      0.00%     77.14% # Class of committed instruction (Count)
system.cpu.commit.committedInstType_0::SimdFloatReduceCmp            0      0.00%     77.14% # Class of committed instruction (Count)
system.cpu.commit.committedInstType_0::SimdAes            0      0.00%     77.14% # Class of committed instruction (Count)
system.cpu.commit.committedInstType_0::SimdAesMix            0      0.00%     77.14% # Class of committed instruction (Count)
system.cpu.commit.committedInstType_0::SimdSha1Hash            0      0.00%     77.14% # Class of committed instruction (Count)
system.cpu.commit.committedInstType_0::SimdSha1Hash2            0      0.00%     77.14% # Class of committed instruction (Count)
system.cpu.commit.committedInstType_0::SimdSha256Hash            0      0.00%     77.14% # Class of committed instruction (Count)
system.cpu.commit.committedInstType_0::SimdSha256Hash2            0      0.00%     77.14% # Class of committed instruction (Count)
system.cpu.commit.committedInstType_0::SimdShaSigma2            0      0.00%     77.14% # Class of committed instruction (Count)
system.cpu.commit.committedInstType_0::SimdShaSigma3            0      0.00%     77.14% # Class of committed instruction (Count)
system.cpu.commit.committedInstType_0::SimdPredAlu            0      0.00%     77.14% # Class of committed instruction (Count)
system.cpu.commit.committedInstType_0::Matrix            0      0.00%     77.14% # Class of committed instruction (Count)
system.cpu.commit.committedInstType_0::MatrixMov            0      0.00%     77.14% # Class of committed instruction (Count)
system.cpu.commit.committedInstType_0::MatrixOP            0      0.00%     77.14% # Class of committed instruction (Count)
system.cpu.commit.committedInstType_0::MemRead    317933890     13.34%     90.48% # Class of committed instruction (Count)
system.cpu.commit.committedInstType_0::MemWrite    186840014      7.84%     98.32% # Class of committed instruction (Count)
system.cpu.commit.committedInstType_0::FloatMemRead      7049334      0.30%     98.62% # Class of committed instruction (Count)
system.cpu.commit.committedInstType_0::FloatMemWrite     32907009      1.38%    100.00% # Class of committed instruction (Count)
system.cpu.commit.committedInstType_0::IprAccess            0      0.00%    100.00% # Class of committed instruction (Count)
system.cpu.commit.committedInstType_0::InstPrefetch            0      0.00%    100.00% # Class of committed instruction (Count)
system.cpu.commit.committedInstType_0::SimdUnitStrideLoad            0      0.00%    100.00% # Class of committed instruction (Count)
system.cpu.commit.committedInstType_0::SimdUnitStrideStore            0      0.00%    100.00% # Class of committed instruction (Count)
system.cpu.commit.committedInstType_0::SimdUnitStrideMaskLoad            0      0.00%    100.00% # Class of committed instruction (Count)
system.cpu.commit.committedInstType_0::SimdUnitStrideMaskStore            0      0.00%    100.00% # Class of committed instruction (Count)
system.cpu.commit.committedInstType_0::SimdStridedLoad            0      0.00%    100.00% # Class of committed instruction (Count)
system.cpu.commit.committedInstType_0::SimdStridedStore            0      0.00%    100.00% # Class of committed instruction (Count)
system.cpu.commit.committedInstType_0::SimdIndexedLoad            0      0.00%    100.00% # Class of committed instruction (Count)
system.cpu.commit.committedInstType_0::SimdIndexedStore            0      0.00%    100.00% # Class of committed instruction (Count)
system.cpu.commit.committedInstType_0::SimdWholeRegisterLoad            0      0.00%    100.00% # Class of committed instruction (Count)
system.cpu.commit.committedInstType_0::SimdWholeRegisterStore            0      0.00%    100.00% # Class of committed instruction (Count)
system.cpu.commit.committedInstType_0::SimdUnitStrideFaultOnlyFirstLoad            0      0.00%    100.00% # Class of committed instruction (Count)
system.cpu.commit.committedInstType_0::SimdUnitStrideSegmentedLoad            0      0.00%    100.00% # Class of committed instruction (Count)
system.cpu.commit.committedInstType_0::SimdUnitStrideSegmentedStore            0      0.00%    100.00% # Class of committed instruction (Count)
system.cpu.commit.committedInstType_0::SimdExt            0      0.00%    100.00% # Class of committed instruction (Count)
system.cpu.commit.committedInstType_0::SimdFloatExt            0      0.00%    100.00% # Class of committed instruction (Count)
system.cpu.commit.committedInstType_0::SimdConfig            0      0.00%    100.00% # Class of committed instruction (Count)
system.cpu.commit.committedInstType_0::total   2382637517                       # Class of committed instruction (Count)
system.cpu.commit.commitEligibleSamples     262348179                       # number cycles where commit BW limit reached (Cycle)
system.cpu.commitStats0.numInsts           1330424986                       # Number of instructions committed (thread level) (Count)
system.cpu.commitStats0.numOps             2382637517                       # Number of ops (including micro ops) committed (thread level) (Count)
system.cpu.commitStats0.numInstsNotNOP     1330424986                       # Number of instructions committed excluding NOPs or prefetches (Count)
system.cpu.commitStats0.numOpsNotNOP       2382637517                       # Number of Ops (including micro ops) Simulated (Count)
system.cpu.commitStats0.cpi                  0.780899                       # CPI: cycles per instruction (thread level) ((Cycle/Count))
system.cpu.commitStats0.ipc                  1.280575                       # IPC: instructions per cycle (thread level) ((Count/Cycle))
system.cpu.commitStats0.numMemRefs          544730247                       # Number of memory references committed (Count)
system.cpu.commitStats0.numFpInsts           82934610                       # Number of float instructions (Count)
system.cpu.commitStats0.numIntInsts        2321629593                       # Number of integer instructions (Count)
system.cpu.commitStats0.numLoadInsts        324983224                       # Number of load instructions (Count)
system.cpu.commitStats0.numStoreInsts       219747023                       # Number of store instructions (Count)
system.cpu.commitStats0.numVecInsts                 0                       # Number of vector instructions (Count)
system.cpu.commitStats0.committedInstType::No_OpClass     23306503      0.98%      0.98% # Class of committed instruction. (Count)
system.cpu.commitStats0.committedInstType::IntAlu   1743877185     73.19%     74.17% # Class of committed instruction. (Count)
system.cpu.commitStats0.committedInstType::IntMult          166      0.00%     74.17% # Class of committed instruction. (Count)
system.cpu.commitStats0.committedInstType::IntDiv     41178257      1.73%     75.90% # Class of committed instruction. (Count)
system.cpu.commitStats0.committedInstType::FloatAdd      8883761      0.37%     76.27% # Class of committed instruction. (Count)
system.cpu.commitStats0.committedInstType::FloatCmp            0      0.00%     76.27% # Class of committed instruction. (Count)
system.cpu.commitStats0.committedInstType::FloatCvt         1280      0.00%     76.27% # Class of committed instruction. (Count)
system.cpu.commitStats0.committedInstType::FloatMult            0      0.00%     76.27% # Class of committed instruction. (Count)
system.cpu.commitStats0.committedInstType::FloatMultAcc            0      0.00%     76.27% # Class of committed instruction. (Count)
system.cpu.commitStats0.committedInstType::FloatDiv            0      0.00%     76.27% # Class of committed instruction. (Count)
system.cpu.commitStats0.committedInstType::FloatMisc            0      0.00%     76.27% # Class of committed instruction. (Count)
system.cpu.commitStats0.committedInstType::FloatSqrt            0      0.00%     76.27% # Class of committed instruction. (Count)
system.cpu.commitStats0.committedInstType::SimdAdd         6582      0.00%     76.27% # Class of committed instruction. (Count)
system.cpu.commitStats0.committedInstType::SimdAddAcc            0      0.00%     76.27% # Class of committed instruction. (Count)
system.cpu.commitStats0.committedInstType::SimdAlu      9469515      0.40%     76.67% # Class of committed instruction. (Count)
system.cpu.commitStats0.committedInstType::SimdCmp            6      0.00%     76.67% # Class of committed instruction. (Count)
system.cpu.commitStats0.committedInstType::SimdCvt        13634      0.00%     76.67% # Class of committed instruction. (Count)
system.cpu.commitStats0.committedInstType::SimdMisc     11167786      0.47%     77.14% # Class of committed instruction. (Count)
system.cpu.commitStats0.committedInstType::SimdMult            0      0.00%     77.14% # Class of committed instruction. (Count)
system.cpu.commitStats0.committedInstType::SimdMultAcc            0      0.00%     77.14% # Class of committed instruction. (Count)
system.cpu.commitStats0.committedInstType::SimdMatMultAcc            0      0.00%     77.14% # Class of committed instruction. (Count)
system.cpu.commitStats0.committedInstType::SimdShift         2065      0.00%     77.14% # Class of committed instruction. (Count)
system.cpu.commitStats0.committedInstType::SimdShiftAcc            0      0.00%     77.14% # Class of committed instruction. (Count)
system.cpu.commitStats0.committedInstType::SimdDiv            0      0.00%     77.14% # Class of committed instruction. (Count)
system.cpu.commitStats0.committedInstType::SimdSqrt            0      0.00%     77.14% # Class of committed instruction. (Count)
system.cpu.commitStats0.committedInstType::SimdFloatAdd           76      0.00%     77.14% # Class of committed instruction. (Count)
system.cpu.commitStats0.committedInstType::SimdFloatAlu            0      0.00%     77.14% # Class of committed instruction. (Count)
system.cpu.commitStats0.committedInstType::SimdFloatCmp            0      0.00%     77.14% # Class of committed instruction. (Count)
system.cpu.commitStats0.committedInstType::SimdFloatCvt          379      0.00%     77.14% # Class of committed instruction. (Count)
system.cpu.commitStats0.committedInstType::SimdFloatDiv           38      0.00%     77.14% # Class of committed instruction. (Count)
system.cpu.commitStats0.committedInstType::SimdFloatMisc            0      0.00%     77.14% # Class of committed instruction. (Count)
system.cpu.commitStats0.committedInstType::SimdFloatMult           37      0.00%     77.14% # Class of committed instruction. (Count)
system.cpu.commitStats0.committedInstType::SimdFloatMultAcc            0      0.00%     77.14% # Class of committed instruction. (Count)
system.cpu.commitStats0.committedInstType::SimdFloatMatMultAcc            0      0.00%     77.14% # Class of committed instruction. (Count)
system.cpu.commitStats0.committedInstType::SimdFloatSqrt            0      0.00%     77.14% # Class of committed instruction. (Count)
system.cpu.commitStats0.committedInstType::SimdReduceAdd            0      0.00%     77.14% # Class of committed instruction. (Count)
system.cpu.commitStats0.committedInstType::SimdReduceAlu            0      0.00%     77.14% # Class of committed instruction. (Count)
system.cpu.commitStats0.committedInstType::SimdReduceCmp            0      0.00%     77.14% # Class of committed instruction. (Count)
system.cpu.commitStats0.committedInstType::SimdFloatReduceAdd            0      0.00%     77.14% # Class of committed instruction. (Count)
system.cpu.commitStats0.committedInstType::SimdFloatReduceCmp            0      0.00%     77.14% # Class of committed instruction. (Count)
system.cpu.commitStats0.committedInstType::SimdAes            0      0.00%     77.14% # Class of committed instruction. (Count)
system.cpu.commitStats0.committedInstType::SimdAesMix            0      0.00%     77.14% # Class of committed instruction. (Count)
system.cpu.commitStats0.committedInstType::SimdSha1Hash            0      0.00%     77.14% # Class of committed instruction. (Count)
system.cpu.commitStats0.committedInstType::SimdSha1Hash2            0      0.00%     77.14% # Class of committed instruction. (Count)
system.cpu.commitStats0.committedInstType::SimdSha256Hash            0      0.00%     77.14% # Class of committed instruction. (Count)
system.cpu.commitStats0.committedInstType::SimdSha256Hash2            0      0.00%     77.14% # Class of committed instruction. (Count)
system.cpu.commitStats0.committedInstType::SimdShaSigma2            0      0.00%     77.14% # Class of committed instruction. (Count)
system.cpu.commitStats0.committedInstType::SimdShaSigma3            0      0.00%     77.14% # Class of committed instruction. (Count)
system.cpu.commitStats0.committedInstType::SimdPredAlu            0      0.00%     77.14% # Class of committed instruction. (Count)
system.cpu.commitStats0.committedInstType::Matrix            0      0.00%     77.14% # Class of committed instruction. (Count)
system.cpu.commitStats0.committedInstType::MatrixMov            0      0.00%     77.14% # Class of committed instruction. (Count)
system.cpu.commitStats0.committedInstType::MatrixOP            0      0.00%     77.14% # Class of committed instruction. (Count)
system.cpu.commitStats0.committedInstType::MemRead    317933890     13.34%     90.48% # Class of committed instruction. (Count)
system.cpu.commitStats0.committedInstType::MemWrite    186840014      7.84%     98.32% # Class of committed instruction. (Count)
system.cpu.commitStats0.committedInstType::FloatMemRead      7049334      0.30%     98.62% # Class of committed instruction. (Count)
system.cpu.commitStats0.committedInstType::FloatMemWrite     32907009      1.38%    100.00% # Class of committed instruction. (Count)
system.cpu.commitStats0.committedInstType::IprAccess            0      0.00%    100.00% # Class of committed instruction. (Count)
system.cpu.commitStats0.committedInstType::InstPrefetch            0      0.00%    100.00% # Class of committed instruction. (Count)
system.cpu.commitStats0.committedInstType::SimdUnitStrideLoad            0      0.00%    100.00% # Class of committed instruction. (Count)
system.cpu.commitStats0.committedInstType::SimdUnitStrideStore            0      0.00%    100.00% # Class of committed instruction. (Count)
system.cpu.commitStats0.committedInstType::SimdUnitStrideMaskLoad            0      0.00%    100.00% # Class of committed instruction. (Count)
system.cpu.commitStats0.committedInstType::SimdUnitStrideMaskStore            0      0.00%    100.00% # Class of committed instruction. (Count)
system.cpu.commitStats0.committedInstType::SimdStridedLoad            0      0.00%    100.00% # Class of committed instruction. (Count)
system.cpu.commitStats0.committedInstType::SimdStridedStore            0      0.00%    100.00% # Class of committed instruction. (Count)
system.cpu.commitStats0.committedInstType::SimdIndexedLoad            0      0.00%    100.00% # Class of committed instruction. (Count)
system.cpu.commitStats0.committedInstType::SimdIndexedStore            0      0.00%    100.00% # Class of committed instruction. (Count)
system.cpu.commitStats0.committedInstType::SimdWholeRegisterLoad            0      0.00%    100.00% # Class of committed instruction. (Count)
system.cpu.commitStats0.committedInstType::SimdWholeRegisterStore            0      0.00%    100.00% # Class of committed instruction. (Count)
system.cpu.commitStats0.committedInstType::SimdUnitStrideFaultOnlyFirstLoad            0      0.00%    100.00% # Class of committed instruction. (Count)
system.cpu.commitStats0.committedInstType::SimdUnitStrideSegmentedLoad            0      0.00%    100.00% # Class of committed instruction. (Count)
system.cpu.commitStats0.committedInstType::SimdUnitStrideSegmentedStore            0      0.00%    100.00% # Class of committed instruction. (Count)
system.cpu.commitStats0.committedInstType::SimdExt            0      0.00%    100.00% # Class of committed instruction. (Count)
system.cpu.commitStats0.committedInstType::SimdFloatExt            0      0.00%    100.00% # Class of committed instruction. (Count)
system.cpu.commitStats0.committedInstType::SimdConfig            0      0.00%    100.00% # Class of committed instruction. (Count)
system.cpu.commitStats0.committedInstType::total   2382637517                       # Class of committed instruction. (Count)
system.cpu.commitStats0.committedControl::IsControl    256302016                       # Class of control type instructions committed (Count)
system.cpu.commitStats0.committedControl::IsDirectControl    226380207                       # Class of control type instructions committed (Count)
system.cpu.commitStats0.committedControl::IsIndirectControl     29921481                       # Class of control type instructions committed (Count)
system.cpu.commitStats0.committedControl::IsCondControl    194624759                       # Class of control type instructions committed (Count)
system.cpu.commitStats0.committedControl::IsUncondControl     61676929                       # Class of control type instructions committed (Count)
system.cpu.commitStats0.committedControl::IsCall     16252892                       # Class of control type instructions committed (Count)
system.cpu.commitStats0.committedControl::IsReturn     16252887                       # Class of control type instructions committed (Count)
system.cpu.decode.idleCycles                120398787                       # Number of cycles decode is idle (Cycle)
system.cpu.decode.blockedCycles             521692337                       # Number of cycles decode is blocked (Cycle)
system.cpu.decode.runCycles                 364103638                       # Number of cycles decode is running (Cycle)
system.cpu.decode.unblockCycles              30694440                       # Number of cycles decode is unblocking (Cycle)
system.cpu.decode.squashCycles                1409552                       # Number of cycles decode is squashing (Cycle)
system.cpu.decode.branchResolved             94304470                       # Number of times decode resolved a branch (Count)
system.cpu.decode.branchMispred                  1641                       # Number of times decode detected a branch misprediction (Count)
system.cpu.decode.decodedInsts             2597862685                       # Number of instructions handled by decode (Count)
system.cpu.decode.squashedInsts                  8575                       # Number of squashed instructions handled by decode (Count)
system.cpu.executeStats0.numInsts          2568854879                       # Number of executed instructions (Count)
system.cpu.executeStats0.numNop                     0                       # Number of nop insts executed (Count)
system.cpu.executeStats0.numBranches        276328182                       # Number of branches executed (Count)
system.cpu.executeStats0.numLoadInsts       339930942                       # Number of load instructions executed (Count)
system.cpu.executeStats0.numStoreInsts      236271080                       # Number of stores executed (Count)
system.cpu.executeStats0.instRate            2.472601                       # Inst execution rate ((Count/Cycle))
system.cpu.executeStats0.numCCRegReads     1232466852                       # Number of times the CC registers were read (Count)
system.cpu.executeStats0.numCCRegWrites     837172867                       # Number of times the CC registers were written (Count)
system.cpu.executeStats0.numFpRegReads       89999571                       # Number of times the floating registers were read (Count)
system.cpu.executeStats0.numFpRegWrites      47770525                       # Number of times the floating registers were written (Count)
system.cpu.executeStats0.numIntRegReads    3080928349                       # Number of times the integer registers were read (Count)
system.cpu.executeStats0.numIntRegWrites   1867746304                       # Number of times the integer registers were written (Count)
system.cpu.executeStats0.numMemRefs         576202022                       # Number of memory refs (Count)
system.cpu.executeStats0.numMiscRegReads   1155804859                       # Number of times the Misc registers were read (Count)
system.cpu.executeStats0.numMiscRegWrites          720                       # Number of times the Misc registers were written (Count)
system.cpu.executeStats0.numVecAluAccesses            0                       # Number of vector alu accesses (Count)
system.cpu.executeStats0.numDiscardedOps            0                       # Number of ops (including micro ops) which were discarded before commit (Count)
system.cpu.fetch.predictedBranches          127760715                       # Number of branches that fetch has predicted taken (Count)
system.cpu.fetch.cycles                     917019852                       # Number of cycles fetch has run and was not squashing or blocked (Cycle)
system.cpu.fetch.squashCycles                 2822338                       # Number of cycles fetch has spent squashing (Cycle)
system.cpu.fetch.miscStallCycles                  472                       # Number of cycles fetch has spent waiting on interrupts, or bad addresses, or out of MSHRs (Cycle)
system.cpu.fetch.pendingTrapStallCycles          3764                       # Number of stall cycles due to pending traps (Cycle)
system.cpu.fetch.cacheLines                 216116736                       # Number of cache lines fetched (Count)
[...]
system.mem_ctrl.dram.bytesWritten::total        45440                       # Number of bytes written to this memory (Byte)
system.mem_ctrl.dram.numReads::cpu.inst          1261                       # Number of read requests responded to by this memory (Count)
system.mem_ctrl.dram.numReads::cpu.data         26133                       # Number of read requests responded to by this memory (Count)
system.mem_ctrl.dram.numReads::total            27394                       # Number of read requests responded to by this memory (Count)
system.mem_ctrl.dram.numWrites::writebacks          710                       # Number of write requests responded to by this memory (Count)
system.mem_ctrl.dram.numWrites::total             710                       # Number of write requests responded to by this memory (Count)
system.mem_ctrl.dram.bwRead::cpu.inst       123950428                       # Total read bandwidth from this memory ((Byte/Second))
system.mem_ctrl.dram.bwRead::cpu.data      2568752217                       # Total read bandwidth from this memory ((Byte/Second))
system.mem_ctrl.dram.bwRead::total         2692702646                       # Total read bandwidth from this memory ((Byte/Second))
system.mem_ctrl.dram.bwInstRead::cpu.inst    123950428                       # Instruction read bandwidth from this memory ((Byte/Second))
system.mem_ctrl.dram.bwInstRead::total      123950428                       # Instruction read bandwidth from this memory ((Byte/Second))
system.mem_ctrl.dram.bwWrite::writebacks     69789694                       # Write bandwidth from this memory ((Byte/Second))
system.mem_ctrl.dram.bwWrite::total          69789694                       # Write bandwidth from this memory ((Byte/Second))
system.mem_ctrl.dram.bwTotal::writebacks     69789694                       # Total bandwidth to/from this memory ((Byte/Second))
system.mem_ctrl.dram.bwTotal::cpu.inst      123950428                       # Total bandwidth to/from this memory ((Byte/Second))
system.mem_ctrl.dram.bwTotal::cpu.data     2568752217                       # Total bandwidth to/from this memory ((Byte/Second))
system.mem_ctrl.dram.bwTotal::total        2762492340                       # Total bandwidth to/from this memory ((Byte/Second))
system.mem_ctrl.dram.readBursts                 27356                       # Number of DRAM read bursts (Count)
system.mem_ctrl.dram.writeBursts                  713                       # Number of DRAM write bursts (Count)
system.mem_ctrl.dram.perBankRdBursts::0          1647                       # Per bank write bursts (Count)
system.mem_ctrl.dram.perBankRdBursts::1          1645                       # Per bank write bursts (Count)
system.mem_ctrl.dram.perBankRdBursts::2          1779                       # Per bank write bursts (Count)
system.mem_ctrl.dram.perBankRdBursts::3          1710                       # Per bank write bursts (Count)
system.mem_ctrl.dram.perBankRdBursts::4          1648                       # Per bank write bursts (Count)
system.mem_ctrl.dram.perBankRdBursts::5          1683                       # Per bank write bursts (Count)
system.mem_ctrl.dram.perBankRdBursts::6          1693                       # Per bank write bursts (Count)
system.mem_ctrl.dram.perBankRdBursts::7          1644                       # Per bank write bursts (Count)
system.mem_ctrl.dram.perBankRdBursts::8          1662                       # Per bank write bursts (Count)
system.mem_ctrl.dram.perBankRdBursts::9          1791                       # Per bank write bursts (Count)
system.mem_ctrl.dram.perBankRdBursts::10         1887                       # Per bank write bursts (Count)
system.mem_ctrl.dram.perBankRdBursts::11         1849                       # Per bank write bursts (Count)
system.mem_ctrl.dram.perBankRdBursts::12         1685                       # Per bank write bursts (Count)
system.mem_ctrl.dram.perBankRdBursts::13         1626                       # Per bank write bursts (Count)
system.mem_ctrl.dram.perBankRdBursts::14         1738                       # Per bank write bursts (Count)
system.mem_ctrl.dram.perBankRdBursts::15         1669                       # Per bank write bursts (Count)
system.mem_ctrl.dram.perBankWrBursts::0             2                       # Per bank write bursts (Count)
system.mem_ctrl.dram.perBankWrBursts::1             0                       # Per bank write bursts (Count)
system.mem_ctrl.dram.perBankWrBursts::2             7                       # Per bank write bursts (Count)
system.mem_ctrl.dram.perBankWrBursts::3             1                       # Per bank write bursts (Count)
system.mem_ctrl.dram.perBankWrBursts::4             0                       # Per bank write bursts (Count)
system.mem_ctrl.dram.perBankWrBursts::5             5                       # Per bank write bursts (Count)
system.mem_ctrl.dram.perBankWrBursts::6             5                       # Per bank write bursts (Count)
system.mem_ctrl.dram.perBankWrBursts::7             4                       # Per bank write bursts (Count)
system.mem_ctrl.dram.perBankWrBursts::8            10                       # Per bank write bursts (Count)
system.mem_ctrl.dram.perBankWrBursts::9             4                       # Per bank write bursts (Count)
system.mem_ctrl.dram.perBankWrBursts::10           53                       # Per bank write bursts (Count)
system.mem_ctrl.dram.perBankWrBursts::11           78                       # Per bank write bursts (Count)
system.mem_ctrl.dram.perBankWrBursts::12          140                       # Per bank write bursts (Count)
system.mem_ctrl.dram.perBankWrBursts::13          128                       # Per bank write bursts (Count)
system.mem_ctrl.dram.perBankWrBursts::14          168                       # Per bank write bursts (Count)
system.mem_ctrl.dram.perBankWrBursts::15          108                       # Per bank write bursts (Count)
system.mem_ctrl.dram.totQLat                133516250                       # Total ticks spent queuing (Tick)
system.mem_ctrl.dram.totBusLat              136780000                       # Total ticks spent in databus transfers (Tick)
system.mem_ctrl.dram.totMemAccLat           646441250                       # Total ticks spent from burst creation until serviced by the DRAM (Tick)
system.mem_ctrl.dram.avgQLat                  4880.69                       # Average queueing delay per DRAM burst ((Tick/Count))
system.mem_ctrl.dram.avgBusLat                5000.00                       # Average bus latency per DRAM burst ((Tick/Count))
system.mem_ctrl.dram.avgMemAccLat            23630.69                       # Average memory access latency per DRAM burst ((Tick/Count))
system.mem_ctrl.dram.readRowHits                24925                       # Number of row buffer hits during reads (Count)
system.mem_ctrl.dram.writeRowHits                 616                       # Number of row buffer hits during writes (Count)
system.mem_ctrl.dram.readRowHitRate             91.11                       # Row buffer hit rate for reads (Ratio)
system.mem_ctrl.dram.writeRowHitRate            86.40                       # Row buffer hit rate for writes (Ratio)
system.mem_ctrl.dram.bytesPerActivate::samples         2529                       # Bytes accessed per row activation (Byte)
system.mem_ctrl.dram.bytesPerActivate::mean   710.200079                       # Bytes accessed per row activation (Byte)
system.mem_ctrl.dram.bytesPerActivate::gmean   481.937223                       # Bytes accessed per row activation (Byte)
system.mem_ctrl.dram.bytesPerActivate::stdev   415.788194                       # Bytes accessed per row activation (Byte)
system.mem_ctrl.dram.bytesPerActivate::0-127          390     15.42%     15.42% # Bytes accessed per row activation (Byte)
system.mem_ctrl.dram.bytesPerActivate::128-255          307     12.14%     27.56% # Bytes accessed per row activation (Byte)
system.mem_ctrl.dram.bytesPerActivate::256-383           88      3.48%     31.04% # Bytes accessed per row activation (Byte)
system.mem_ctrl.dram.bytesPerActivate::384-511           47      1.86%     32.90% # Bytes accessed per row activation (Byte)
system.mem_ctrl.dram.bytesPerActivate::512-639           90      3.56%     36.46% # Bytes accessed per row activation (Byte)
system.mem_ctrl.dram.bytesPerActivate::640-767           20      0.79%     37.25% # Bytes accessed per row activation (Byte)
system.mem_ctrl.dram.bytesPerActivate::768-895           17      0.67%     37.92% # Bytes accessed per row activation (Byte)
system.mem_ctrl.dram.bytesPerActivate::896-1023            9      0.36%     38.28% # Bytes accessed per row activation (Byte)
system.mem_ctrl.dram.bytesPerActivate::1024-1151         1561     61.72%    100.00% # Bytes accessed per row activation (Byte)
system.mem_ctrl.dram.bytesPerActivate::total         2529                       # Bytes accessed per row activation (Byte)
system.mem_ctrl.dram.dramBytesRead            1750784                       # Total bytes read (Byte)
system.mem_ctrl.dram.dramBytesWritten           45632                       # Total bytes written (Byte)
system.mem_ctrl.dram.avgRdBW              2688.967423                       # Average DRAM read bandwidth in MiBytes/s ((Byte/Second))
system.mem_ctrl.dram.avgWrBW                70.084580                       # Average DRAM write bandwidth in MiBytes/s ((Byte/Second))
system.mem_ctrl.dram.peakBW                  12800.00                       # Theoretical peak bandwidth in MiByte/s ((Byte/Second))
system.mem_ctrl.dram.busUtil                    21.56                       # Data bus utilization in percentage (Ratio)
system.mem_ctrl.dram.busUtilRead                21.01                       # Data bus utilization in percentage for reads (Ratio)
system.mem_ctrl.dram.busUtilWrite                0.55                       # Data bus utilization in percentage for writes (Ratio)
system.mem_ctrl.dram.pageHitRate                90.99                       # Row buffer hit rate, read and write combined (Ratio)
system.mem_ctrl.dram.power_state.pwrStateResidencyTicks::UNDEFINED    651099000                       # Cumulative time (in ticks) in various power states (Tick)
system.mem_ctrl.dram.rank0.actEnergy          8446620                       # Energy for activate commands per rank (pJ) (Joule)
system.mem_ctrl.dram.rank0.preEnergy          4489485                       # Energy for precharge commands per rank (pJ) (Joule)
system.mem_ctrl.dram.rank0.readEnergy        96033000                       # Energy for read commands per rank (pJ) (Joule)
system.mem_ctrl.dram.rank0.writeEnergy         125280                       # Energy for write commands per rank (pJ) (Joule)
system.mem_ctrl.dram.rank0.refreshEnergy 51629760.000000                       # Energy for refresh commands per rank (pJ) (Joule)
system.mem_ctrl.dram.rank0.actBackEnergy    181212690                       # Energy for active background per rank (pJ) (Joule)
system.mem_ctrl.dram.rank0.preBackEnergy     97422240                       # Energy for precharge background per rank (pJ) (Joule)
system.mem_ctrl.dram.rank0.actPowerDownEnergy            0                       # Energy for active power-down per rank (pJ) (Joule)
system.mem_ctrl.dram.rank0.prePowerDownEnergy            0                       # Energy for precharge power-down per rank (pJ) (Joule)
system.mem_ctrl.dram.rank0.selfRefreshEnergy            0                       # Energy for self refresh per rank (pJ) (Joule)
system.mem_ctrl.dram.rank0.totalEnergy      439359075                       # Total energy per rank (pJ) (Joule)
system.mem_ctrl.dram.rank0.averagePower    674.796114                       # Core power per rank (mW) (Watt)
system.mem_ctrl.dram.rank0.totalIdleTime            0                       # Total Idle time Per DRAM Rank (Tick)
system.mem_ctrl.dram.rank0.pwrStateTime::IDLE    245047000                       # Time in different power states (Tick)
system.mem_ctrl.dram.rank0.pwrStateTime::REF     21840000                       # Time in different power states (Tick)
system.mem_ctrl.dram.rank0.pwrStateTime::SREF            0                       # Time in different power states (Tick)
system.mem_ctrl.dram.rank0.pwrStateTime::PRE_PDN            0                       # Time in different power states (Tick)
system.mem_ctrl.dram.rank0.pwrStateTime::ACT    384212000                       # Time in different power states (Tick)
system.mem_ctrl.dram.rank0.pwrStateTime::ACT_PDN            0                       # Time in different power states (Tick)
system.mem_ctrl.dram.rank1.actEnergy          9603300                       # Energy for activate commands per rank (pJ) (Joule)
system.mem_ctrl.dram.rank1.preEnergy          5108070                       # Energy for precharge commands per rank (pJ) (Joule)
system.mem_ctrl.dram.rank1.readEnergy        99295980                       # Energy for read commands per rank (pJ) (Joule)
system.mem_ctrl.dram.rank1.writeEnergy        3596580                       # Energy for write commands per rank (pJ) (Joule)
system.mem_ctrl.dram.rank1.refreshEnergy 51629760.000000                       # Energy for refresh commands per rank (pJ) (Joule)
system.mem_ctrl.dram.rank1.actBackEnergy    183108510                       # Energy for active background per rank (pJ) (Joule)
system.mem_ctrl.dram.rank1.preBackEnergy     95825760                       # Energy for precharge background per rank (pJ) (Joule)
system.mem_ctrl.dram.rank1.actPowerDownEnergy            0                       # Energy for active power-down per rank (pJ) (Joule)
system.mem_ctrl.dram.rank1.prePowerDownEnergy            0                       # Energy for precharge power-down per rank (pJ) (Joule)
system.mem_ctrl.dram.rank1.selfRefreshEnergy            0                       # Energy for self refresh per rank (pJ) (Joule)
system.mem_ctrl.dram.rank1.totalEnergy      448167960                       # Total energy per rank (pJ) (Joule)
system.mem_ctrl.dram.rank1.averagePower    688.325370                       # Core power per rank (mW) (Watt)
system.mem_ctrl.dram.rank1.totalIdleTime            0                       # Total Idle time Per DRAM Rank (Tick)
system.mem_ctrl.dram.rank1.pwrStateTime::IDLE    240692000                       # Time in different power states (Tick)
system.mem_ctrl.dram.rank1.pwrStateTime::REF     21840000                       # Time in different power states (Tick)
system.mem_ctrl.dram.rank1.pwrStateTime::SREF            0                       # Time in different power states (Tick)
system.mem_ctrl.dram.rank1.pwrStateTime::PRE_PDN            0                       # Time in different power states (Tick)
system.mem_ctrl.dram.rank1.pwrStateTime::ACT    388567000                       # Time in different power states (Tick)
system.mem_ctrl.dram.rank1.pwrStateTime::ACT_PDN            0                       # Time in different power states (Tick)
system.mem_ctrl.power_state.pwrStateResidencyTicks::UNDEFINED    651099000                       # Cumulative time (in ticks) in various power states (Tick)
system.membus.transDist::ReadResp               27306                       # Transaction distribution (Count)
system.membus.transDist::WritebackDirty           710                       # Transaction distribution (Count)
system.membus.transDist::CleanEvict             26748                       # Transaction distribution (Count)
system.membus.transDist::ReadExReq                 88                       # Transaction distribution (Count)
system.membus.transDist::ReadExResp                88                       # Transaction distribution (Count)
system.membus.transDist::ReadSharedReq          27305                       # Transaction distribution (Count)
system.membus.pktCount_system.l2_cache.mem_side_port::system.mem_ctrl.port        82245                       # Packet count per connected requestor and responder (Count)
system.membus.pktCount_system.l2_cache.mem_side_port::total        82245                       # Packet count per connected requestor and responder (Count)
system.membus.pktCount::total                   82245                       # Packet count per connected requestor and responder (Count)
system.membus.pktSize_system.l2_cache.mem_side_port::system.mem_ctrl.port      1798656                       # Cumulative packet size per connected requestor and responder (Byte)
system.membus.pktSize_system.l2_cache.mem_side_port::total      1798656                       # Cumulative packet size per connected requestor and responder (Byte)
system.membus.pktSize::total                  1798656                       # Cumulative packet size per connected requestor and responder (Byte)
system.membus.snoops                                0                       # Total snoops (Count)
system.membus.snoopTraffic                          0                       # Total snoop traffic (Byte)
system.membus.snoopFanout::samples              27393                       # Request fanout histogram (Count)
system.membus.snoopFanout::mean                     0                       # Request fanout histogram (Count)
system.membus.snoopFanout::stdev                    0                       # Request fanout histogram (Count)
system.membus.snoopFanout::underflows               0      0.00%      0.00% # Request fanout histogram (Count)
system.membus.snoopFanout::0                    27393    100.00%    100.00% # Request fanout histogram (Count)
system.membus.snoopFanout::1                        0      0.00%    100.00% # Request fanout histogram (Count)
system.membus.snoopFanout::overflows                0      0.00%    100.00% # Request fanout histogram (Count)
system.membus.snoopFanout::min_value                0                       # Request fanout histogram (Count)
system.membus.snoopFanout::max_value                0                       # Request fanout histogram (Count)
system.membus.snoopFanout::total                27393                       # Request fanout histogram (Count)
system.membus.power_state.pwrStateResidencyTicks::UNDEFINED    651099000                       # Cumulative time (in ticks) in various power states (Tick)
system.membus.reqLayer2.occupancy            57691000                       # Layer occupancy (ticks) (Tick)
system.membus.reqLayer2.utilization               0.1                       # Layer utilization (Ratio)
system.membus.respLayer2.occupancy          143639000                       # Layer occupancy (ticks) (Tick)
system.membus.respLayer2.utilization              0.2                       # Layer utilization (Ratio)
system.membus.snoop_filter.totRequests          54851                       # Total number of requests made to the snoop filter. (Count)
system.membus.snoop_filter.hitSingleRequests        27458                       # Number of requests hitting in the snoop filter with a single holder of the requested data. (Count)
system.membus.snoop_filter.hitMultiRequests            0                       # Number of requests hitting in the snoop filter with multiple (>1) holders of the requested data. (Count)
system.membus.snoop_filter.totSnoops                0                       # Total number of snoops made to the snoop filter. (Count)
system.membus.snoop_filter.hitSingleSnoops            0                       # Number of snoops hitting in the snoop filter with a single holder of the requested data. (Count)
system.membus.snoop_filter.hitMultiSnoops            0                       # Number of snoops hitting in the snoop filter with multiple (>1) holders of the requested data. (Count)
system.workload.inst.arm                            0                       # number of arm instructions executed (Count)
system.workload.inst.quiesce                        0                       # number of quiesce instructions executed (Count)

---------- End Simulation Statistics   ----------
