
---------- Begin Simulation Statistics ----------
simSeconds                                   1.006798                       # Number of seconds simulated (Second)
simTicks                                 1006797779000                       # Number of ticks simulated (Tick)
finalTick                                1006797779000                       # Number of ticks from beginning of simulation (restored from checkpoints and never reset) (Tick)
simFreq                                  1000000000000                       # The number of ticks per simulated second ((Tick/Second))
hostSeconds                                    618.13                       # Real time elapsed on the host (Second)
hostTickRate                               1628769886                       # The number of ticks simulated per host second (ticks/s) ((Tick/Second))
hostMemory                                    8617236                       # Number of bytes of host memory used (Byte)
simInsts                                    510664527                       # Number of instructions simulated (Count)
simOps                                     1108979411                       # Number of ops (including micro ops) simulated (Count)
hostInstRate                                   826135                       # Simulator instruction rate (inst/s) ((Count/Second))
hostOpRate                                    1794065                       # Simulator op (including micro ops) rate (op/s) ((Count/Second))
system.clk_domain.clock                          1000                       # Clock period in ticks (Tick)
system.clk_domain.voltage_domain.voltage            1                       # Voltage in Volts (Volt)
system.cpu.numCycles                       1006797779                       # Number of cpu cycles simulated (Cycle)
system.cpu.cpi                               1.971180                       # CPI: cycles per instruction (core level) ((Cycle/Count))
system.cpu.ipc                               0.507310                       # IPC: instructions per cycle (core level) ((Count/Cycle))
system.cpu.numWorkItemsStarted                      0                       # Number of work items this cpu started (Count)
system.cpu.numWorkItemsCompleted                    0                       # Number of work items this cpu completed (Count)
system.cpu.commitStats0.numInsts            510758814                       # Number of instructions committed (thread level) (Count)
system.cpu.commitStats0.numOps             1109073876                       # Number of ops (including micro ops) committed (thread level) (Count)
system.cpu.commitStats0.numInstsNotNOP              0                       # Number of instructions committed excluding NOPs or prefetches (Count)
system.cpu.commitStats0.numOpsNotNOP                0                       # Number of Ops (including micro ops) Simulated (Count)
system.cpu.commitStats0.cpi                  1.971180                       # CPI: cycles per instruction (thread level) ((Cycle/Count))
system.cpu.commitStats0.ipc                  0.507310                       # IPC: instructions per cycle (thread level) ((Count/Cycle))
system.cpu.commitStats0.numMemRefs                  0                       # Number of memory references committed (Count)
system.cpu.commitStats0.numFpInsts            2448149                       # Number of float instructions (Count)
system.cpu.commitStats0.numIntInsts        1106083763                       # Number of integer instructions (Count)
system.cpu.commitStats0.numLoadInsts        201811400                       # Number of load instructions (Count)
system.cpu.commitStats0.numStoreInsts       101176378                       # Number of store instructions (Count)
system.cpu.commitStats0.numVecInsts                 0                       # Number of vector instructions (Count)
system.cpu.commitStats0.committedInstType::No_OpClass      1239058      0.11%      0.11% # Class of committed instruction. (Count)
system.cpu.commitStats0.committedInstType::IntAlu    802778010     72.38%     72.49% # Class of committed instruction. (Count)
system.cpu.commitStats0.committedInstType::IntMult       187848      0.02%     72.51% # Class of committed instruction. (Count)
system.cpu.commitStats0.committedInstType::IntDiv        38763      0.00%     72.51% # Class of committed instruction. (Count)
system.cpu.commitStats0.committedInstType::FloatAdd       382597      0.03%     72.55% # Class of committed instruction. (Count)
system.cpu.commitStats0.committedInstType::FloatCmp            0      0.00%     72.55% # Class of committed instruction. (Count)
system.cpu.commitStats0.committedInstType::FloatCvt         1232      0.00%     72.55% # Class of committed instruction. (Count)
system.cpu.commitStats0.committedInstType::FloatMult            0      0.00%     72.55% # Class of committed instruction. (Count)
system.cpu.commitStats0.committedInstType::FloatMultAcc            0      0.00%     72.55% # Class of committed instruction. (Count)
system.cpu.commitStats0.committedInstType::FloatDiv            0      0.00%     72.55% # Class of committed instruction. (Count)
system.cpu.commitStats0.committedInstType::FloatMisc            0      0.00%     72.55% # Class of committed instruction. (Count)
system.cpu.commitStats0.committedInstType::FloatSqrt            0      0.00%     72.55% # Class of committed instruction. (Count)
system.cpu.commitStats0.committedInstType::SimdAdd         6510      0.00%     72.55% # Class of committed instruction. (Count)
system.cpu.commitStats0.committedInstType::SimdAddAcc            0      0.00%     72.55% # Class of committed instruction. (Count)
system.cpu.commitStats0.committedInstType::SimdAlu       202848      0.02%     72.57% # Class of committed instruction. (Count)
system.cpu.commitStats0.committedInstType::SimdCmp           12      0.00%     72.57% # Class of committed instruction. (Count)
system.cpu.commitStats0.committedInstType::SimdCvt        13514      0.00%     72.57% # Class of committed instruction. (Count)
system.cpu.commitStats0.committedInstType::SimdMisc       858275      0.08%     72.65% # Class of committed instruction. (Count)
system.cpu.commitStats0.committedInstType::SimdMult            0      0.00%     72.65% # Class of committed instruction. (Count)
system.cpu.commitStats0.committedInstType::SimdMultAcc            0      0.00%     72.65% # Class of committed instruction. (Count)
system.cpu.commitStats0.committedInstType::SimdMatMultAcc            0      0.00%     72.65% # Class of committed instruction. (Count)
system.cpu.commitStats0.committedInstType::SimdShift         1931      0.00%     72.65% # Class of committed instruction. (Count)
system.cpu.commitStats0.committedInstType::SimdShiftAcc            0      0.00%     72.65% # Class of committed instruction. (Count)
system.cpu.commitStats0.committedInstType::SimdDiv            0      0.00%     72.65% # Class of committed instruction. (Count)
system.cpu.commitStats0.committedInstType::SimdSqrt            0      0.00%     72.65% # Class of committed instruction. (Count)
system.cpu.commitStats0.committedInstType::SimdFloatAdd        93875      0.01%     72.66% # Class of committed instruction. (Count)
system.cpu.commitStats0.committedInstType::SimdFloatAlu            0      0.00%     72.66% # Class of committed instruction. (Count)
system.cpu.commitStats0.committedInstType::SimdFloatCmp            0      0.00%     72.66% # Class of committed instruction. (Count)
system.cpu.commitStats0.committedInstType::SimdFloatCvt       187750      0.02%     72.67% # Class of committed instruction. (Count)
system.cpu.commitStats0.committedInstType::SimdFloatDiv        93875      0.01%     72.68% # Class of committed instruction. (Count)
system.cpu.commitStats0.committedInstType::SimdFloatMisc            0      0.00%     72.68% # Class of committed instruction. (Count)
system.cpu.commitStats0.committedInstType::SimdFloatMult            0      0.00%     72.68% # Class of committed instruction. (Count)
system.cpu.commitStats0.committedInstType::SimdFloatMultAcc            0      0.00%     72.68% # Class of committed instruction. (Count)
system.cpu.commitStats0.committedInstType::SimdFloatMatMultAcc            0      0.00%     72.68% # Class of committed instruction. (Count)
system.cpu.commitStats0.committedInstType::SimdFloatSqrt            0      0.00%     72.68% # Class of committed instruction. (Count)
system.cpu.commitStats0.committedInstType::SimdReduceAdd            0      0.00%     72.68% # Class of committed instruction. (Count)
system.cpu.commitStats0.committedInstType::SimdReduceAlu            0      0.00%     72.68% # Class of committed instruction. (Count)
system.cpu.commitStats0.committedInstType::SimdReduceCmp            0      0.00%     72.68% # Class of committed instruction. (Count)
system.cpu.commitStats0.committedInstType::SimdFloatReduceAdd            0      0.00%     72.68% # Class of committed instruction. (Count)
system.cpu.commitStats0.committedInstType::SimdFloatReduceCmp            0      0.00%     72.68% # Class of committed instruction. (Count)
system.cpu.commitStats0.committedInstType::SimdAes            0      0.00%     72.68% # Class of committed instruction. (Count)
system.cpu.commitStats0.committedInstType::SimdAesMix            0      0.00%     72.68% # Class of committed instruction. (Count)
system.cpu.commitStats0.committedInstType::SimdSha1Hash            0      0.00%     72.68% # Class of committed instruction. (Count)
system.cpu.commitStats0.committedInstType::SimdSha1Hash2            0      0.00%     72.68% # Class of committed instruction. (Count)
system.cpu.commitStats0.committedInstType::SimdSha256Hash            0      0.00%     72.68% # Class of committed instruction. (Count)
system.cpu.commitStats0.committedInstType::SimdSha256Hash2            0      0.00%     72.68% # Class of committed instruction. (Count)
system.cpu.commitStats0.committedInstType::SimdShaSigma2            0      0.00%     72.68% # Class of committed instruction. (Count)
system.cpu.commitStats0.committedInstType::SimdShaSigma3            0      0.00%     72.68% # Class of committed instruction. (Count)
system.cpu.commitStats0.committedInstType::SimdPredAlu            0      0.00%     72.68% # Class of committed instruction. (Count)
system.cpu.commitStats0.committedInstType::Matrix            0      0.00%     72.68% # Class of committed instruction. (Count)
system.cpu.commitStats0.committedInstType::MatrixMov            0      0.00%     72.68% # Class of committed instruction. (Count)
system.cpu.commitStats0.committedInstType::MatrixOP            0      0.00%     72.68% # Class of committed instruction. (Count)
system.cpu.commitStats0.committedInstType::MemRead    201416242     18.16%     90.84% # Class of committed instruction. (Count)
system.cpu.commitStats0.committedInstType::MemWrite    101063526      9.11%     99.95% # Class of committed instruction. (Count)
system.cpu.commitStats0.committedInstType::FloatMemRead       395158      0.04%     99.99% # Class of committed instruction. (Count)
system.cpu.commitStats0.committedInstType::FloatMemWrite       112852      0.01%    100.00% # Class of committed instruction. (Count)
system.cpu.commitStats0.committedInstType::IprAccess            0      0.00%    100.00% # Class of committed instruction. (Count)
system.cpu.commitStats0.committedInstType::InstPrefetch            0      0.00%    100.00% # Class of committed instruction. (Count)
system.cpu.commitStats0.committedInstType::SimdUnitStrideLoad            0      0.00%    100.00% # Class of committed instruction. (Count)
system.cpu.commitStats0.committedInstType::SimdUnitStrideStore            0      0.00%    100.00% # Class of committed instruction. (Count)
system.cpu.commitStats0.committedInstType::SimdUnitStrideMaskLoad            0      0.00%    100.00% # Class of committed instruction. (Count)
system.cpu.commitStats0.committedInstType::SimdUnitStrideMaskStore            0      0.00%    100.00% # Class of committed instruction. (Count)
system.cpu.commitStats0.committedInstType::SimdStridedLoad            0      0.00%    100.00% # Class of committed instruction. (Count)
system.cpu.commitStats0.committedInstType::SimdStridedStore            0      0.00%    100.00% # Class of committed instruction. (Count)
system.cpu.commitStats0.committedInstType::SimdIndexedLoad            0      0.00%    100.00% # Class of committed instruction. (Count)
system.cpu.commitStats0.committedInstType::SimdIndexedStore            0      0.00%    100.00% # Class of committed instruction. (Count)
system.cpu.commitStats0.committedInstType::SimdWholeRegisterLoad            0      0.00%    100.00% # Class of committed instruction. (Count)
system.cpu.commitStats0.committedInstType::SimdWholeRegisterStore            0      0.00%    100.00% # Class of committed instruction. (Count)
system.cpu.commitStats0.committedInstType::SimdUnitStrideFaultOnlyFirstLoad            0      0.00%    100.00% # Class of committed instruction. (Count)
system.cpu.commitStats0.committedInstType::SimdUnitStrideSegmentedLoad            0      0.00%    100.00% # Class of committed instruction. (Count)
system.cpu.commitStats0.committedInstType::SimdUnitStrideSegmentedStore            0      0.00%    100.00% # Class of committed instruction. (Count)
system.cpu.commitStats0.committedInstType::SimdExt            0      0.00%    100.00% # Class of committed instruction. (Count)
system.cpu.commitStats0.committedInstType::SimdFloatExt            0      0.00%    100.00% # Class of committed instruction. (Count)
system.cpu.commitStats0.committedInstType::SimdConfig            0      0.00%    100.00% # Class of committed instruction. (Count)
system.cpu.commitStats0.committedInstType::total   1109073876                       # Class of committed instruction. (Count)
system.cpu.commitStats0.committedControl::IsControl    100806122                       # Class of control type instructions committed (Count)
system.cpu.commitStats0.committedControl::IsDirectControl     99471481                       # Class of control type instructions committed (Count)
system.cpu.commitStats0.committedControl::IsIndirectControl      1334360                       # Class of control type instructions committed (Count)
system.cpu.commitStats0.committedControl::IsCondControl     98311727                       # Class of control type instructions committed (Count)
system.cpu.commitStats0.committedControl::IsUncondControl      2494114                       # Class of control type instructions committed (Count)
system.cpu.commitStats0.committedControl::IsCall      1046918                       # Class of control type instructions committed (Count)
system.cpu.commitStats0.committedControl::IsReturn      1046913                       # Class of control type instructions committed (Count)
system.cpu.exec_context.thread_0.numMatAluAccesses            0                       # Number of matrix alu accesses (Count)
system.cpu.exec_context.thread_0.numCallsReturns      2093831                       # Number of times a function call or return occured (Count)
system.cpu.exec_context.thread_0.numMatInsts            0                       # Number of matrix instructions (Count)
system.cpu.exec_context.thread_0.numIdleCycles            0                       # Number of idle cycles (Cycle)
system.cpu.exec_context.thread_0.numBusyCycles   1006797779                       # Number of busy cycles (Cycle)
system.cpu.exec_context.thread_0.notIdleFraction            1                       # Percentage of non-idle cycles (Ratio)
system.cpu.exec_context.thread_0.idleFraction            0                       # Percentage of idle cycles (Ratio)
system.cpu.executeStats0.numInsts                   0                       # Number of executed instructions (Count)
system.cpu.executeStats0.numNop                     0                       # Number of nop insts executed (Count)
system.cpu.executeStats0.numBranches                0                       # Number of branches executed (Count)
system.cpu.executeStats0.numLoadInsts               0                       # Number of load instructions executed (Count)
system.cpu.executeStats0.numStoreInsts      302987778                       # Number of stores executed (Count)
system.cpu.executeStats0.instRate                   0                       # Inst execution rate ((Count/Cycle))
system.cpu.executeStats0.numFpAluAccesses      2448149                       # Number of float alu accesses (Count)
system.cpu.executeStats0.numFpRegReads        3327551                       # Number of times the floating registers were read (Count)
system.cpu.executeStats0.numFpRegWrites       2139340                       # Number of times the floating registers were written (Count)
system.cpu.executeStats0.numIntAluAccesses   1106083763                       # Number of integer alu accesses (Count)
system.cpu.executeStats0.numIntRegReads    1402178621                       # Number of times the integer registers were read (Count)
system.cpu.executeStats0.numIntRegWrites    805689433                       # Number of times the integer registers were written (Count)
system.cpu.executeStats0.numMemRefs         302987778                       # Number of memory refs (Count)
system.cpu.executeStats0.numMiscRegReads    504488632                       # Number of times the Misc registers were read (Count)
system.cpu.executeStats0.numMiscRegWrites          693                       # Number of times the Misc registers were written (Count)
system.cpu.executeStats0.numVecAluAccesses            0                       # Number of vector alu accesses (Count)
system.cpu.executeStats0.numDiscardedOps            0                       # Number of ops (including micro ops) which were discarded before commit (Count)
system.cpu.fetchStats0.numInsts             510758814                       # Number of instructions fetched (thread level) (Count)
system.cpu.fetchStats0.numOps              1109073876                       # Number of ops (including micro ops) fetched (thread level) (Count)
system.cpu.fetchStats0.fetchRate             0.507310                       # Number of inst fetches per cycle ((Count/Cycle))
system.cpu.fetchStats0.numBranches          100806122                       # Number of branches fetched (Count)
system.cpu.fetchStats0.branchRate            0.100125                       # Number of branch fetches per cycle (Ratio)
system.cpu.fetchStats0.numFetchSuspends             0                       # Number of times Execute suspended instruction fetching (Count)
system.cpu.interrupts.clk_domain.clock          16000                       # Clock period in ticks (Tick)
system.cpu.l1d.demandHits::cpu.data         296263970                       # number of demand (read+write) hits (Count)
system.cpu.l1d.demandHits::total            296263970                       # number of demand (read+write) hits (Count)
system.cpu.l1d.overallHits::cpu.data        296263970                       # number of overall hits (Count)
system.cpu.l1d.overallHits::total           296263970                       # number of overall hits (Count)
system.cpu.l1d.demandMisses::cpu.data         6722360                       # number of demand (read+write) misses (Count)
system.cpu.l1d.demandMisses::total            6722360                       # number of demand (read+write) misses (Count)
system.cpu.l1d.overallMisses::cpu.data        6722360                       # number of overall misses (Count)
system.cpu.l1d.overallMisses::total           6722360                       # number of overall misses (Count)
system.cpu.l1d.demandMissLatency::cpu.data  82323201000                       # number of demand (read+write) miss ticks (Tick)
system.cpu.l1d.demandMissLatency::total   82323201000                       # number of demand (read+write) miss ticks (Tick)
system.cpu.l1d.overallMissLatency::cpu.data  82323201000                       # number of overall miss ticks (Tick)
system.cpu.l1d.overallMissLatency::total  82323201000                       # number of overall miss ticks (Tick)
system.cpu.l1d.demandAccesses::cpu.data     302986330                       # number of demand (read+write) accesses (Count)
system.cpu.l1d.demandAccesses::total        302986330                       # number of demand (read+write) accesses (Count)
system.cpu.l1d.overallAccesses::cpu.data    302986330                       # number of overall (read+write) accesses (Count)
system.cpu.l1d.overallAccesses::total       302986330                       # number of overall (read+write) accesses (Count)
system.cpu.l1d.demandMissRate::cpu.data      0.022187                       # miss rate for demand accesses (Ratio)
system.cpu.l1d.demandMissRate::total         0.022187                       # miss rate for demand accesses (Ratio)
system.cpu.l1d.overallMissRate::cpu.data     0.022187                       # miss rate for overall accesses (Ratio)
system.cpu.l1d.overallMissRate::total        0.022187                       # miss rate for overall accesses (Ratio)
system.cpu.l1d.demandAvgMissLatency::cpu.data 12246.175599                       # average overall miss latency in ticks ((Tick/Count))
system.cpu.l1d.demandAvgMissLatency::total 12246.175599                       # average overall miss latency in ticks ((Tick/Count))
system.cpu.l1d.overallAvgMissLatency::cpu.data 12246.175599                       # average overall miss latency ((Tick/Count))
system.cpu.l1d.overallAvgMissLatency::total 12246.175599                       # average overall miss latency ((Tick/Count))
system.cpu.l1d.blockedCycles::no_mshrs              0                       # number of cycles access was blocked (Cycle)
system.cpu.l1d.blockedCycles::no_targets            0                       # number of cycles access was blocked (Cycle)
system.cpu.l1d.blockedCauses::no_mshrs              0                       # number of times access was blocked (Count)
system.cpu.l1d.blockedCauses::no_targets            0                       # number of times access was blocked (Count)
system.cpu.l1d.avgBlocked::no_mshrs               nan                       # average number of cycles each access was blocked ((Cycle/Count))
system.cpu.l1d.avgBlocked::no_targets             nan                       # average number of cycles each access was blocked ((Cycle/Count))
system.cpu.l1d.writebacks::writebacks          771199                       # number of writebacks (Count)
system.cpu.l1d.writebacks::total               771199                       # number of writebacks (Count)
system.cpu.l1d.demandMshrMisses::cpu.data      6722360                       # number of demand (read+write) MSHR misses (Count)
system.cpu.l1d.demandMshrMisses::total        6722360                       # number of demand (read+write) MSHR misses (Count)
system.cpu.l1d.overallMshrMisses::cpu.data      6722360                       # number of overall MSHR misses (Count)
system.cpu.l1d.overallMshrMisses::total       6722360                       # number of overall MSHR misses (Count)
system.cpu.l1d.demandMshrMissLatency::cpu.data  75600841000                       # number of demand (read+write) MSHR miss ticks (Tick)
system.cpu.l1d.demandMshrMissLatency::total  75600841000                       # number of demand (read+write) MSHR miss ticks (Tick)
system.cpu.l1d.overallMshrMissLatency::cpu.data  75600841000                       # number of overall MSHR miss ticks (Tick)
system.cpu.l1d.overallMshrMissLatency::total  75600841000                       # number of overall MSHR miss ticks (Tick)
system.cpu.l1d.demandMshrMissRate::cpu.data     0.022187                       # mshr miss ratio for demand accesses (Ratio)
system.cpu.l1d.demandMshrMissRate::total     0.022187                       # mshr miss ratio for demand accesses (Ratio)
system.cpu.l1d.overallMshrMissRate::cpu.data     0.022187                       # mshr miss ratio for overall accesses (Ratio)
system.cpu.l1d.overallMshrMissRate::total     0.022187                       # mshr miss ratio for overall accesses (Ratio)
system.cpu.l1d.demandAvgMshrMissLatency::cpu.data 11246.175599                       # average overall mshr miss latency ((Tick/Count))
system.cpu.l1d.demandAvgMshrMissLatency::total 11246.175599                       # average overall mshr miss latency ((Tick/Count))
system.cpu.l1d.overallAvgMshrMissLatency::cpu.data 11246.175599                       # average overall mshr miss latency ((Tick/Count))
system.cpu.l1d.overallAvgMshrMissLatency::total 11246.175599                       # average overall mshr miss latency ((Tick/Count))
system.cpu.l1d.replacements                   6722365                       # number of replacements (Count)
system.cpu.l1d.LockedRMWReadReq.hits::cpu.data          427                       # number of LockedRMWReadReq hits (Count)
system.cpu.l1d.LockedRMWReadReq.hits::total          427                       # number of LockedRMWReadReq hits (Count)
system.cpu.l1d.LockedRMWReadReq.misses::cpu.data           69                       # number of LockedRMWReadReq misses (Count)
system.cpu.l1d.LockedRMWReadReq.misses::total           69                       # number of LockedRMWReadReq misses (Count)
system.cpu.l1d.LockedRMWReadReq.missLatency::cpu.data      4177000                       # number of LockedRMWReadReq miss ticks (Tick)
system.cpu.l1d.LockedRMWReadReq.missLatency::total      4177000                       # number of LockedRMWReadReq miss ticks (Tick)
system.cpu.l1d.LockedRMWReadReq.accesses::cpu.data          496                       # number of LockedRMWReadReq accesses(hits+misses) (Count)
system.cpu.l1d.LockedRMWReadReq.accesses::total          496                       # number of LockedRMWReadReq accesses(hits+misses) (Count)
system.cpu.l1d.LockedRMWReadReq.missRate::cpu.data     0.139113                       # miss rate for LockedRMWReadReq accesses (Ratio)
system.cpu.l1d.LockedRMWReadReq.missRate::total     0.139113                       # miss rate for LockedRMWReadReq accesses (Ratio)
system.cpu.l1d.LockedRMWReadReq.avgMissLatency::cpu.data 60536.231884                       # average LockedRMWReadReq miss latency ((Tick/Count))
system.cpu.l1d.LockedRMWReadReq.avgMissLatency::total 60536.231884                       # average LockedRMWReadReq miss latency ((Tick/Count))
system.cpu.l1d.LockedRMWReadReq.mshrMisses::cpu.data           69                       # number of LockedRMWReadReq MSHR misses (Count)
system.cpu.l1d.LockedRMWReadReq.mshrMisses::total           69                       # number of LockedRMWReadReq MSHR misses (Count)
system.cpu.l1d.LockedRMWReadReq.mshrMissLatency::cpu.data      8712000                       # number of LockedRMWReadReq MSHR miss ticks (Tick)
system.cpu.l1d.LockedRMWReadReq.mshrMissLatency::total      8712000                       # number of LockedRMWReadReq MSHR miss ticks (Tick)
system.cpu.l1d.LockedRMWReadReq.mshrMissRate::cpu.data     0.139113                       # mshr miss rate for LockedRMWReadReq accesses (Ratio)
system.cpu.l1d.LockedRMWReadReq.mshrMissRate::total     0.139113                       # mshr miss rate for LockedRMWReadReq accesses (Ratio)
system.cpu.l1d.LockedRMWReadReq.avgMshrMissLatency::cpu.data 126260.869565                       # average LockedRMWReadReq mshr miss latency ((Tick/Count))
system.cpu.l1d.LockedRMWReadReq.avgMshrMissLatency::total 126260.869565                       # average LockedRMWReadReq mshr miss latency ((Tick/Count))
system.cpu.l1d.LockedRMWWriteReq.hits::cpu.data          496                       # number of LockedRMWWriteReq hits (Count)
system.cpu.l1d.LockedRMWWriteReq.hits::total          496                       # number of LockedRMWWriteReq hits (Count)
system.cpu.l1d.LockedRMWWriteReq.accesses::cpu.data          496                       # number of LockedRMWWriteReq accesses(hits+misses) (Count)
system.cpu.l1d.LockedRMWWriteReq.accesses::total          496                       # number of LockedRMWWriteReq accesses(hits+misses) (Count)
system.cpu.l1d.ReadReq.hits::cpu.data       195291914                       # number of ReadReq hits (Count)
system.cpu.l1d.ReadReq.hits::total          195291914                       # number of ReadReq hits (Count)
system.cpu.l1d.ReadReq.misses::cpu.data       6518768                       # number of ReadReq misses (Count)
system.cpu.l1d.ReadReq.misses::total          6518768                       # number of ReadReq misses (Count)
system.cpu.l1d.ReadReq.missLatency::cpu.data  79205314000                       # number of ReadReq miss ticks (Tick)
system.cpu.l1d.ReadReq.missLatency::total  79205314000                       # number of ReadReq miss ticks (Tick)
system.cpu.l1d.ReadReq.accesses::cpu.data    201810682                       # number of ReadReq accesses(hits+misses) (Count)
system.cpu.l1d.ReadReq.accesses::total      201810682                       # number of ReadReq accesses(hits+misses) (Count)
system.cpu.l1d.ReadReq.missRate::cpu.data     0.032301                       # miss rate for ReadReq accesses (Ratio)
system.cpu.l1d.ReadReq.missRate::total       0.032301                       # miss rate for ReadReq accesses (Ratio)
system.cpu.l1d.ReadReq.avgMissLatency::cpu.data 12150.350189                       # average ReadReq miss latency ((Tick/Count))
system.cpu.l1d.ReadReq.avgMissLatency::total 12150.350189                       # average ReadReq miss latency ((Tick/Count))
system.cpu.l1d.ReadReq.mshrMisses::cpu.data      6518768                       # number of ReadReq MSHR misses (Count)
system.cpu.l1d.ReadReq.mshrMisses::total      6518768                       # number of ReadReq MSHR misses (Count)
system.cpu.l1d.ReadReq.mshrMissLatency::cpu.data  72686546000                       # number of ReadReq MSHR miss ticks (Tick)
system.cpu.l1d.ReadReq.mshrMissLatency::total  72686546000                       # number of ReadReq MSHR miss ticks (Tick)
system.cpu.l1d.ReadReq.mshrMissRate::cpu.data     0.032301                       # mshr miss rate for ReadReq accesses (Ratio)
system.cpu.l1d.ReadReq.mshrMissRate::total     0.032301                       # mshr miss rate for ReadReq accesses (Ratio)
system.cpu.l1d.ReadReq.avgMshrMissLatency::cpu.data 11150.350189                       # average ReadReq mshr miss latency ((Tick/Count))
system.cpu.l1d.ReadReq.avgMshrMissLatency::total 11150.350189                       # average ReadReq mshr miss latency ((Tick/Count))
system.cpu.l1d.WriteReq.hits::cpu.data      100972056                       # number of WriteReq hits (Count)
system.cpu.l1d.WriteReq.hits::total         100972056                       # number of WriteReq hits (Count)
system.cpu.l1d.WriteReq.misses::cpu.data       203592                       # number of WriteReq misses (Count)
system.cpu.l1d.WriteReq.misses::total          203592                       # number of WriteReq misses (Count)
system.cpu.l1d.WriteReq.missLatency::cpu.data   3117887000                       # number of WriteReq miss ticks (Tick)
system.cpu.l1d.WriteReq.missLatency::total   3117887000                       # number of WriteReq miss ticks (Tick)
system.cpu.l1d.WriteReq.accesses::cpu.data    101175648                       # number of WriteReq accesses(hits+misses) (Count)
system.cpu.l1d.WriteReq.accesses::total     101175648                       # number of WriteReq accesses(hits+misses) (Count)
system.cpu.l1d.WriteReq.missRate::cpu.data     0.002012                       # miss rate for WriteReq accesses (Ratio)
system.cpu.l1d.WriteReq.missRate::total      0.002012                       # miss rate for WriteReq accesses (Ratio)
system.cpu.l1d.WriteReq.avgMissLatency::cpu.data 15314.388581                       # average WriteReq miss latency ((Tick/Count))
system.cpu.l1d.WriteReq.avgMissLatency::total 15314.388581                       # average WriteReq miss latency ((Tick/Count))
system.cpu.l1d.WriteReq.mshrMisses::cpu.data       203592                       # number of WriteReq MSHR misses (Count)
system.cpu.l1d.WriteReq.mshrMisses::total       203592                       # number of WriteReq MSHR misses (Count)
system.cpu.l1d.WriteReq.mshrMissLatency::cpu.data   2914295000                       # number of WriteReq MSHR miss ticks (Tick)
system.cpu.l1d.WriteReq.mshrMissLatency::total   2914295000                       # number of WriteReq MSHR miss ticks (Tick)
system.cpu.l1d.WriteReq.mshrMissRate::cpu.data     0.002012                       # mshr miss rate for WriteReq accesses (Ratio)
system.cpu.l1d.WriteReq.mshrMissRate::total     0.002012                       # mshr miss rate for WriteReq accesses (Ratio)
system.cpu.l1d.WriteReq.avgMshrMissLatency::cpu.data 14314.388581                       # average WriteReq mshr miss latency ((Tick/Count))
system.cpu.l1d.WriteReq.avgMshrMissLatency::total 14314.388581                       # average WriteReq mshr miss latency ((Tick/Count))
system.cpu.l1d.power_state.pwrStateResidencyTicks::UNDEFINED 1006797779000                       # Cumulative time (in ticks) in various power states (Tick)
system.cpu.l1d.tags.tagsInUse               63.999727                       # Average ticks per tags in use ((Tick/Count))
system.cpu.l1d.tags.totalRefs               116740813                       # Total number of references to valid blocks. (Count)
system.cpu.l1d.tags.sampledRefs               6722365                       # Sample count of references to valid blocks. (Count)
system.cpu.l1d.tags.avgRefs                 17.366033                       # Average number of references to valid blocks. ((Count/Count))
system.cpu.l1d.tags.warmupTick                 158000                       # The tick when the warmup percentage was hit. (Tick)
system.cpu.l1d.tags.occupancies::cpu.data    63.999727                       # Average occupied blocks per tick, per requestor ((Count/Tick))
system.cpu.l1d.tags.avgOccs::cpu.data        0.999996                       # Average percentage of cache occupancy ((Ratio/Tick))
system.cpu.l1d.tags.avgOccs::total           0.999996                       # Average percentage of cache occupancy ((Ratio/Tick))
system.cpu.l1d.tags.occupanciesTaskId::1024           64                       # Occupied blocks per task id (Count)
system.cpu.l1d.tags.ageTaskId_1024::0              30                       # Occupied blocks per task id, per block age (Count)
system.cpu.l1d.tags.ageTaskId_1024::1               1                       # Occupied blocks per task id, per block age (Count)
system.cpu.l1d.tags.ageTaskId_1024::4              33                       # Occupied blocks per task id, per block age (Count)
system.cpu.l1d.tags.ratioOccsTaskId::1024            1                       # Ratio of occupied blocks and all blocks, per task id (Ratio)
system.cpu.l1d.tags.tagAccesses             612697073                       # Number of tag accesses (Count)
system.cpu.l1d.tags.dataAccesses            612697073                       # Number of data accesses (Count)
system.cpu.l1d.tags.power_state.pwrStateResidencyTicks::UNDEFINED 1006797779000                       # Cumulative time (in ticks) in various power states (Tick)
system.cpu.l1i.demandHits::cpu.inst         620249493                       # number of demand (read+write) hits (Count)
system.cpu.l1i.demandHits::total            620249493                       # number of demand (read+write) hits (Count)
system.cpu.l1i.overallHits::cpu.inst        620249493                       # number of overall hits (Count)
system.cpu.l1i.overallHits::total           620249493                       # number of overall hits (Count)
system.cpu.l1i.demandMisses::cpu.inst          581992                       # number of demand (read+write) misses (Count)
system.cpu.l1i.demandMisses::total             581992                       # number of demand (read+write) misses (Count)
system.cpu.l1i.overallMisses::cpu.inst         581992                       # number of overall misses (Count)
system.cpu.l1i.overallMisses::total            581992                       # number of overall misses (Count)
system.cpu.l1i.demandMissLatency::cpu.inst   7189622000                       # number of demand (read+write) miss ticks (Tick)
system.cpu.l1i.demandMissLatency::total    7189622000                       # number of demand (read+write) miss ticks (Tick)
system.cpu.l1i.overallMissLatency::cpu.inst   7189622000                       # number of overall miss ticks (Tick)
system.cpu.l1i.overallMissLatency::total   7189622000                       # number of overall miss ticks (Tick)
system.cpu.l1i.demandAccesses::cpu.inst     620831485                       # number of demand (read+write) accesses (Count)
system.cpu.l1i.demandAccesses::total        620831485                       # number of demand (read+write) accesses (Count)
system.cpu.l1i.overallAccesses::cpu.inst    620831485                       # number of overall (read+write) accesses (Count)
system.cpu.l1i.overallAccesses::total       620831485                       # number of overall (read+write) accesses (Count)
system.cpu.l1i.demandMissRate::cpu.inst      0.000937                       # miss rate for demand accesses (Ratio)
system.cpu.l1i.demandMissRate::total         0.000937                       # miss rate for demand accesses (Ratio)
system.cpu.l1i.overallMissRate::cpu.inst     0.000937                       # miss rate for overall accesses (Ratio)
system.cpu.l1i.overallMissRate::total        0.000937                       # miss rate for overall accesses (Ratio)
system.cpu.l1i.demandAvgMissLatency::cpu.inst 12353.472213                       # average overall miss latency in ticks ((Tick/Count))
system.cpu.l1i.demandAvgMissLatency::total 12353.472213                       # average overall miss latency in ticks ((Tick/Count))
system.cpu.l1i.overallAvgMissLatency::cpu.inst 12353.472213                       # average overall miss latency ((Tick/Count))
system.cpu.l1i.overallAvgMissLatency::total 12353.472213                       # average overall miss latency ((Tick/Count))
system.cpu.l1i.blockedCycles::no_mshrs              0                       # number of cycles access was blocked (Cycle)
system.cpu.l1i.blockedCycles::no_targets            0                       # number of cycles access was blocked (Cycle)
system.cpu.l1i.blockedCauses::no_mshrs              0                       # number of times access was blocked (Count)
system.cpu.l1i.blockedCauses::no_targets            0                       # number of times access was blocked (Count)
system.cpu.l1i.avgBlocked::no_mshrs               nan                       # average number of cycles each access was blocked ((Cycle/Count))
system.cpu.l1i.avgBlocked::no_targets             nan                       # average number of cycles each access was blocked ((Cycle/Count))
system.cpu.l1i.demandMshrMisses::cpu.inst       581992                       # number of demand (read+write) MSHR misses (Count)
system.cpu.l1i.demandMshrMisses::total         581992                       # number of demand (read+write) MSHR misses (Count)
system.cpu.l1i.overallMshrMisses::cpu.inst       581992                       # number of overall MSHR misses (Count)
system.cpu.l1i.overallMshrMisses::total        581992                       # number of overall MSHR misses (Count)
system.cpu.l1i.demandMshrMissLatency::cpu.inst   6607630000                       # number of demand (read+write) MSHR miss ticks (Tick)
system.cpu.l1i.demandMshrMissLatency::total   6607630000                       # number of demand (read+write) MSHR miss ticks (Tick)
system.cpu.l1i.overallMshrMissLatency::cpu.inst   6607630000                       # number of overall MSHR miss ticks (Tick)
system.cpu.l1i.overallMshrMissLatency::total   6607630000                       # number of overall MSHR miss ticks (Tick)
system.cpu.l1i.demandMshrMissRate::cpu.inst     0.000937                       # mshr miss ratio for demand accesses (Ratio)
system.cpu.l1i.demandMshrMissRate::total     0.000937                       # mshr miss ratio for demand accesses (Ratio)
system.cpu.l1i.overallMshrMissRate::cpu.inst     0.000937                       # mshr miss ratio for overall accesses (Ratio)
system.cpu.l1i.overallMshrMissRate::total     0.000937                       # mshr miss ratio for overall accesses (Ratio)
system.cpu.l1i.demandAvgMshrMissLatency::cpu.inst 11353.472213                       # average overall mshr miss latency ((Tick/Count))
system.cpu.l1i.demandAvgMshrMissLatency::total 11353.472213                       # average overall mshr miss latency ((Tick/Count))
system.cpu.l1i.overallAvgMshrMissLatency::cpu.inst 11353.472213                       # average overall mshr miss latency ((Tick/Count))
system.cpu.l1i.overallAvgMshrMissLatency::total 11353.472213                       # average overall mshr miss latency ((Tick/Count))
system.cpu.l1i.replacements                    581928                       # number of replacements (Count)
system.cpu.l1i.ReadReq.hits::cpu.inst       620249493                       # number of ReadReq hits (Count)
system.cpu.l1i.ReadReq.hits::total          620249493                       # number of ReadReq hits (Count)
system.cpu.l1i.ReadReq.misses::cpu.inst        581992                       # number of ReadReq misses (Count)
system.cpu.l1i.ReadReq.misses::total           581992                       # number of ReadReq misses (Count)
system.cpu.l1i.ReadReq.missLatency::cpu.inst   7189622000                       # number of ReadReq miss ticks (Tick)
system.cpu.l1i.ReadReq.missLatency::total   7189622000                       # number of ReadReq miss ticks (Tick)
system.cpu.l1i.ReadReq.accesses::cpu.inst    620831485                       # number of ReadReq accesses(hits+misses) (Count)
system.cpu.l1i.ReadReq.accesses::total      620831485                       # number of ReadReq accesses(hits+misses) (Count)
system.cpu.l1i.ReadReq.missRate::cpu.inst     0.000937                       # miss rate for ReadReq accesses (Ratio)
system.cpu.l1i.ReadReq.missRate::total       0.000937                       # miss rate for ReadReq accesses (Ratio)
system.cpu.l1i.ReadReq.avgMissLatency::cpu.inst 12353.472213                       # average ReadReq miss latency ((Tick/Count))
system.cpu.l1i.ReadReq.avgMissLatency::total 12353.472213                       # average ReadReq miss latency ((Tick/Count))
system.cpu.l1i.ReadReq.mshrMisses::cpu.inst       581992                       # number of ReadReq MSHR misses (Count)
system.cpu.l1i.ReadReq.mshrMisses::total       581992                       # number of ReadReq MSHR misses (Count)
system.cpu.l1i.ReadReq.mshrMissLatency::cpu.inst   6607630000                       # number of ReadReq MSHR miss ticks (Tick)
system.cpu.l1i.ReadReq.mshrMissLatency::total   6607630000                       # number of ReadReq MSHR miss ticks (Tick)
system.cpu.l1i.ReadReq.mshrMissRate::cpu.inst     0.000937                       # mshr miss rate for ReadReq accesses (Ratio)
system.cpu.l1i.ReadReq.mshrMissRate::total     0.000937                       # mshr miss rate for ReadReq accesses (Ratio)
system.cpu.l1i.ReadReq.avgMshrMissLatency::cpu.inst 11353.472213                       # average ReadReq mshr miss latency ((Tick/Count))
system.cpu.l1i.ReadReq.avgMshrMissLatency::total 11353.472213                       # average ReadReq mshr miss latency ((Tick/Count))
system.cpu.l1i.power_state.pwrStateResidencyTicks::UNDEFINED 1006797779000                       # Cumulative time (in ticks) in various power states (Tick)
system.cpu.l1i.tags.tagsInUse               63.999248                       # Average ticks per tags in use ((Tick/Count))
system.cpu.l1i.tags.totalRefs                20225173                       # Total number of references to valid blocks. (Count)
system.cpu.l1i.tags.sampledRefs                581928                       # Sample count of references to valid blocks. (Count)
system.cpu.l1i.tags.avgRefs                 34.755456                       # Average number of references to valid blocks. ((Count/Count))
system.cpu.l1i.tags.warmupTick                  79000                       # The tick when the warmup percentage was hit. (Tick)
system.cpu.l1i.tags.occupancies::cpu.inst    63.999248                       # Average occupied blocks per tick, per requestor ((Count/Tick))
system.cpu.l1i.tags.avgOccs::cpu.inst        0.999988                       # Average percentage of cache occupancy ((Ratio/Tick))
system.cpu.l1i.tags.avgOccs::total           0.999988                       # Average percentage of cache occupancy ((Ratio/Tick))
system.cpu.l1i.tags.occupanciesTaskId::1024           64                       # Occupied blocks per task id (Count)
system.cpu.l1i.tags.ageTaskId_1024::0               6                       # Occupied blocks per task id, per block age (Count)
system.cpu.l1i.tags.ageTaskId_1024::4              58                       # Occupied blocks per task id, per block age (Count)
system.cpu.l1i.tags.ratioOccsTaskId::1024            1                       # Ratio of occupied blocks and all blocks, per task id (Ratio)
system.cpu.l1i.tags.tagAccesses            1242244962                       # Number of tag accesses (Count)
system.cpu.l1i.tags.dataAccesses           1242244962                       # Number of data accesses (Count)
system.cpu.l1i.tags.power_state.pwrStateResidencyTicks::UNDEFINED 1006797779000                       # Cumulative time (in ticks) in various power states (Tick)
system.cpu.mmu.dtb.rdAccesses               201811426                       # TLB accesses on read requests (Count)
system.cpu.mmu.dtb.wrAccesses               101176391                       # TLB accesses on write requests (Count)
system.cpu.mmu.dtb.rdMisses                      1699                       # TLB misses on read requests (Count)
system.cpu.mmu.dtb.wrMisses                       541                       # TLB misses on write requests (Count)
system.cpu.mmu.dtb.walker.power_state.pwrStateResidencyTicks::UNDEFINED 1006797779000                       # Cumulative time (in ticks) in various power states (Tick)
system.cpu.mmu.itb.rdAccesses                       0                       # TLB accesses on read requests (Count)
system.cpu.mmu.itb.wrAccesses               620831598                       # TLB accesses on write requests (Count)
system.cpu.mmu.itb.rdMisses                         0                       # TLB misses on read requests (Count)
system.cpu.mmu.itb.wrMisses                       466                       # TLB misses on write requests (Count)
system.cpu.mmu.itb.walker.power_state.pwrStateResidencyTicks::UNDEFINED 1006797779000                       # Cumulative time (in ticks) in various power states (Tick)
system.cpu.power_state.pwrStateResidencyTicks::ON 1006797779000                       # Cumulative time (in ticks) in various power states (Tick)
system.cpu.thread_0.numInsts                        0                       # Number of Instructions committed (Count)
system.cpu.thread_0.numOps                          0                       # Number of Ops committed (Count)
system.cpu.thread_0.numMemRefs                      0                       # Number of Memory References (Count)
system.cpu.workload.numSyscalls                 93971                       # Number of system calls (Count)
system.l2_bus.transDist::ReadResp             7100760                       # Transaction distribution (Count)
system.l2_bus.transDist::WritebackDirty        782791                       # Transaction distribution (Count)
system.l2_bus.transDist::CleanEvict           6550948                       # Transaction distribution (Count)
system.l2_bus.transDist::ReadExReq             203661                       # Transaction distribution (Count)
system.l2_bus.transDist::ReadExResp            203661                       # Transaction distribution (Count)
system.l2_bus.transDist::ReadSharedReq        7100760                       # Transaction distribution (Count)
system.l2_bus.pktCount_system.cpu.l1d.mem_side_port::system.l2_cache.cpu_side_port     20167223                       # Packet count per connected requestor and responder (Count)
system.l2_bus.pktCount_system.cpu.l1i.mem_side_port::system.l2_cache.cpu_side_port      1745912                       # Packet count per connected requestor and responder (Count)
system.l2_bus.pktCount::total                21913135                       # Packet count per connected requestor and responder (Count)
system.l2_bus.pktSize_system.cpu.l1d.mem_side_port::system.l2_cache.cpu_side_port    479592192                       # Cumulative packet size per connected requestor and responder (Byte)
system.l2_bus.pktSize_system.cpu.l1i.mem_side_port::system.l2_cache.cpu_side_port     37247488                       # Cumulative packet size per connected requestor and responder (Byte)
system.l2_bus.pktSize::total                516839680                       # Cumulative packet size per connected requestor and responder (Byte)
system.l2_bus.snoops                            29446                       # Total snoops (Count)
system.l2_bus.snoopTraffic                     741888                       # Total snoop traffic (Byte)
system.l2_bus.snoopFanout::samples            7333867                       # Request fanout histogram (Count)
system.l2_bus.snoopFanout::mean              0.000123                       # Request fanout histogram (Count)
system.l2_bus.snoopFanout::stdev             0.011071                       # Request fanout histogram (Count)
system.l2_bus.snoopFanout::underflows               0      0.00%      0.00% # Request fanout histogram (Count)
system.l2_bus.snoopFanout::0                  7332968     99.99%     99.99% # Request fanout histogram (Count)
system.l2_bus.snoopFanout::1                      899      0.01%    100.00% # Request fanout histogram (Count)
system.l2_bus.snoopFanout::2                        0      0.00%    100.00% # Request fanout histogram (Count)
system.l2_bus.snoopFanout::overflows                0      0.00%    100.00% # Request fanout histogram (Count)
system.l2_bus.snoopFanout::min_value                0                       # Request fanout histogram (Count)
system.l2_bus.snoopFanout::max_value                1                       # Request fanout histogram (Count)
system.l2_bus.snoopFanout::total              7333867                       # Request fanout histogram (Count)
system.l2_bus.power_state.pwrStateResidencyTicks::UNDEFINED 1006797779000                       # Cumulative time (in ticks) in various power states (Tick)
system.l2_bus.reqLayer0.occupancy         16151112000                       # Layer occupancy (ticks) (Tick)
system.l2_bus.reqLayer0.utilization               0.0                       # Layer utilization (Ratio)
system.l2_bus.respLayer0.occupancy        20167287000                       # Layer occupancy (ticks) (Tick)
system.l2_bus.respLayer0.utilization              0.0                       # Layer utilization (Ratio)
system.l2_bus.respLayer1.occupancy         1745976000                       # Layer occupancy (ticks) (Tick)
system.l2_bus.respLayer1.utilization              0.0                       # Layer utilization (Ratio)
system.l2_bus.snoop_filter.totRequests       14608714                       # Total number of requests made to the snoop filter. (Count)
system.l2_bus.snoop_filter.hitSingleRequests      7304293                       # Number of requests hitting in the snoop filter with a single holder of the requested data. (Count)
system.l2_bus.snoop_filter.hitMultiRequests            0                       # Number of requests hitting in the snoop filter with multiple (>1) holders of the requested data. (Count)
system.l2_bus.snoop_filter.totSnoops              899                       # Total number of snoops made to the snoop filter. (Count)
system.l2_bus.snoop_filter.hitSingleSnoops          899                       # Number of snoops hitting in the snoop filter with a single holder of the requested data. (Count)
system.l2_bus.snoop_filter.hitMultiSnoops            0                       # Number of snoops hitting in the snoop filter with multiple (>1) holders of the requested data. (Count)
system.l2_cache.demandHits::cpu.inst           578535                       # number of demand (read+write) hits (Count)
system.l2_cache.demandHits::cpu.data          6696064                       # number of demand (read+write) hits (Count)
system.l2_cache.demandHits::total             7274599                       # number of demand (read+write) hits (Count)
system.l2_cache.overallHits::cpu.inst          578535                       # number of overall hits (Count)
system.l2_cache.overallHits::cpu.data         6696064                       # number of overall hits (Count)
system.l2_cache.overallHits::total            7274599                       # number of overall hits (Count)
system.l2_cache.demandMisses::cpu.inst           3457                       # number of demand (read+write) misses (Count)
system.l2_cache.demandMisses::cpu.data          26365                       # number of demand (read+write) misses (Count)
system.l2_cache.demandMisses::total             29822                       # number of demand (read+write) misses (Count)
system.l2_cache.overallMisses::cpu.inst          3457                       # number of overall misses (Count)
system.l2_cache.overallMisses::cpu.data         26365                       # number of overall misses (Count)
system.l2_cache.overallMisses::total            29822                       # number of overall misses (Count)
system.l2_cache.demandMissLatency::cpu.inst    236307000                       # number of demand (read+write) miss ticks (Tick)
system.l2_cache.demandMissLatency::cpu.data   1894752000                       # number of demand (read+write) miss ticks (Tick)
system.l2_cache.demandMissLatency::total   2131059000                       # number of demand (read+write) miss ticks (Tick)
system.l2_cache.overallMissLatency::cpu.inst    236307000                       # number of overall miss ticks (Tick)
system.l2_cache.overallMissLatency::cpu.data   1894752000                       # number of overall miss ticks (Tick)
system.l2_cache.overallMissLatency::total   2131059000                       # number of overall miss ticks (Tick)
system.l2_cache.demandAccesses::cpu.inst       581992                       # number of demand (read+write) accesses (Count)
system.l2_cache.demandAccesses::cpu.data      6722429                       # number of demand (read+write) accesses (Count)
system.l2_cache.demandAccesses::total         7304421                       # number of demand (read+write) accesses (Count)
system.l2_cache.overallAccesses::cpu.inst       581992                       # number of overall (read+write) accesses (Count)
system.l2_cache.overallAccesses::cpu.data      6722429                       # number of overall (read+write) accesses (Count)
system.l2_cache.overallAccesses::total        7304421                       # number of overall (read+write) accesses (Count)
system.l2_cache.demandMissRate::cpu.inst     0.005940                       # miss rate for demand accesses (Ratio)
system.l2_cache.demandMissRate::cpu.data     0.003922                       # miss rate for demand accesses (Ratio)
system.l2_cache.demandMissRate::total        0.004083                       # miss rate for demand accesses (Ratio)
system.l2_cache.overallMissRate::cpu.inst     0.005940                       # miss rate for overall accesses (Ratio)
system.l2_cache.overallMissRate::cpu.data     0.003922                       # miss rate for overall accesses (Ratio)
system.l2_cache.overallMissRate::total       0.004083                       # miss rate for overall accesses (Ratio)
system.l2_cache.demandAvgMissLatency::cpu.inst 68356.089095                       # average overall miss latency in ticks ((Tick/Count))
system.l2_cache.demandAvgMissLatency::cpu.data 71866.186232                       # average overall miss latency in ticks ((Tick/Count))
system.l2_cache.demandAvgMissLatency::total 71459.291798                       # average overall miss latency in ticks ((Tick/Count))
system.l2_cache.overallAvgMissLatency::cpu.inst 68356.089095                       # average overall miss latency ((Tick/Count))
system.l2_cache.overallAvgMissLatency::cpu.data 71866.186232                       # average overall miss latency ((Tick/Count))
system.l2_cache.overallAvgMissLatency::total 71459.291798                       # average overall miss latency ((Tick/Count))
system.l2_cache.blockedCycles::no_mshrs             0                       # number of cycles access was blocked (Cycle)
system.l2_cache.blockedCycles::no_targets            0                       # number of cycles access was blocked (Cycle)
system.l2_cache.blockedCauses::no_mshrs             0                       # number of times access was blocked (Count)
system.l2_cache.blockedCauses::no_targets            0                       # number of times access was blocked (Count)
system.l2_cache.avgBlocked::no_mshrs              nan                       # average number of cycles each access was blocked ((Cycle/Count))
system.l2_cache.avgBlocked::no_targets            nan                       # average number of cycles each access was blocked ((Cycle/Count))
system.l2_cache.writebacks::writebacks          11592                       # number of writebacks (Count)
system.l2_cache.writebacks::total               11592                       # number of writebacks (Count)
system.l2_cache.demandMshrMisses::cpu.inst         3457                       # number of demand (read+write) MSHR misses (Count)
system.l2_cache.demandMshrMisses::cpu.data        26365                       # number of demand (read+write) MSHR misses (Count)
system.l2_cache.demandMshrMisses::total         29822                       # number of demand (read+write) MSHR misses (Count)
system.l2_cache.overallMshrMisses::cpu.inst         3457                       # number of overall MSHR misses (Count)
system.l2_cache.overallMshrMisses::cpu.data        26365                       # number of overall MSHR misses (Count)
system.l2_cache.overallMshrMisses::total        29822                       # number of overall MSHR misses (Count)
system.l2_cache.demandMshrMissLatency::cpu.inst    232850000                       # number of demand (read+write) MSHR miss ticks (Tick)
system.l2_cache.demandMshrMissLatency::cpu.data   1868387000                       # number of demand (read+write) MSHR miss ticks (Tick)
system.l2_cache.demandMshrMissLatency::total   2101237000                       # number of demand (read+write) MSHR miss ticks (Tick)
system.l2_cache.overallMshrMissLatency::cpu.inst    232850000                       # number of overall MSHR miss ticks (Tick)
system.l2_cache.overallMshrMissLatency::cpu.data   1868387000                       # number of overall MSHR miss ticks (Tick)
system.l2_cache.overallMshrMissLatency::total   2101237000                       # number of overall MSHR miss ticks (Tick)
system.l2_cache.demandMshrMissRate::cpu.inst     0.005940                       # mshr miss ratio for demand accesses (Ratio)
system.l2_cache.demandMshrMissRate::cpu.data     0.003922                       # mshr miss ratio for demand accesses (Ratio)
system.l2_cache.demandMshrMissRate::total     0.004083                       # mshr miss ratio for demand accesses (Ratio)
system.l2_cache.overallMshrMissRate::cpu.inst     0.005940                       # mshr miss ratio for overall accesses (Ratio)
system.l2_cache.overallMshrMissRate::cpu.data     0.003922                       # mshr miss ratio for overall accesses (Ratio)
system.l2_cache.overallMshrMissRate::total     0.004083                       # mshr miss ratio for overall accesses (Ratio)
system.l2_cache.demandAvgMshrMissLatency::cpu.inst 67356.089095                       # average overall mshr miss latency ((Tick/Count))
system.l2_cache.demandAvgMshrMissLatency::cpu.data 70866.186232                       # average overall mshr miss latency ((Tick/Count))
system.l2_cache.demandAvgMshrMissLatency::total 70459.291798                       # average overall mshr miss latency ((Tick/Count))
system.l2_cache.overallAvgMshrMissLatency::cpu.inst 67356.089095                       # average overall mshr miss latency ((Tick/Count))
system.l2_cache.overallAvgMshrMissLatency::cpu.data 70866.186232                       # average overall mshr miss latency ((Tick/Count))
system.l2_cache.overallAvgMshrMissLatency::total 70459.291798                       # average overall mshr miss latency ((Tick/Count))
system.l2_cache.replacements                    29446                       # number of replacements (Count)
system.l2_cache.CleanEvict.mshrMisses::writebacks          733                       # number of CleanEvict MSHR misses (Count)
system.l2_cache.CleanEvict.mshrMisses::total          733                       # number of CleanEvict MSHR misses (Count)
system.l2_cache.CleanEvict.mshrMissRate::writebacks          inf                       # mshr miss rate for CleanEvict accesses (Ratio)
system.l2_cache.CleanEvict.mshrMissRate::total          inf                       # mshr miss rate for CleanEvict accesses (Ratio)
system.l2_cache.ReadExReq.hits::cpu.data       192248                       # number of ReadExReq hits (Count)
system.l2_cache.ReadExReq.hits::total          192248                       # number of ReadExReq hits (Count)
system.l2_cache.ReadExReq.misses::cpu.data        11413                       # number of ReadExReq misses (Count)
system.l2_cache.ReadExReq.misses::total         11413                       # number of ReadExReq misses (Count)
system.l2_cache.ReadExReq.missLatency::cpu.data    780581000                       # number of ReadExReq miss ticks (Tick)
system.l2_cache.ReadExReq.missLatency::total    780581000                       # number of ReadExReq miss ticks (Tick)
system.l2_cache.ReadExReq.accesses::cpu.data       203661                       # number of ReadExReq accesses(hits+misses) (Count)
system.l2_cache.ReadExReq.accesses::total       203661                       # number of ReadExReq accesses(hits+misses) (Count)
system.l2_cache.ReadExReq.missRate::cpu.data     0.056039                       # miss rate for ReadExReq accesses (Ratio)
system.l2_cache.ReadExReq.missRate::total     0.056039                       # miss rate for ReadExReq accesses (Ratio)
system.l2_cache.ReadExReq.avgMissLatency::cpu.data 68394.024358                       # average ReadExReq miss latency ((Tick/Count))
system.l2_cache.ReadExReq.avgMissLatency::total 68394.024358                       # average ReadExReq miss latency ((Tick/Count))
system.l2_cache.ReadExReq.mshrMisses::cpu.data        11413                       # number of ReadExReq MSHR misses (Count)
system.l2_cache.ReadExReq.mshrMisses::total        11413                       # number of ReadExReq MSHR misses (Count)
system.l2_cache.ReadExReq.mshrMissLatency::cpu.data    769168000                       # number of ReadExReq MSHR miss ticks (Tick)
system.l2_cache.ReadExReq.mshrMissLatency::total    769168000                       # number of ReadExReq MSHR miss ticks (Tick)
system.l2_cache.ReadExReq.mshrMissRate::cpu.data     0.056039                       # mshr miss rate for ReadExReq accesses (Ratio)
system.l2_cache.ReadExReq.mshrMissRate::total     0.056039                       # mshr miss rate for ReadExReq accesses (Ratio)
system.l2_cache.ReadExReq.avgMshrMissLatency::cpu.data 67394.024358                       # average ReadExReq mshr miss latency ((Tick/Count))
system.l2_cache.ReadExReq.avgMshrMissLatency::total 67394.024358                       # average ReadExReq mshr miss latency ((Tick/Count))
system.l2_cache.ReadSharedReq.hits::cpu.inst       578535                       # number of ReadSharedReq hits (Count)
system.l2_cache.ReadSharedReq.hits::cpu.data      6503816                       # number of ReadSharedReq hits (Count)
system.l2_cache.ReadSharedReq.hits::total      7082351                       # number of ReadSharedReq hits (Count)
system.l2_cache.ReadSharedReq.misses::cpu.inst         3457                       # number of ReadSharedReq misses (Count)
system.l2_cache.ReadSharedReq.misses::cpu.data        14952                       # number of ReadSharedReq misses (Count)
system.l2_cache.ReadSharedReq.misses::total        18409                       # number of ReadSharedReq misses (Count)
system.l2_cache.ReadSharedReq.missLatency::cpu.inst    236307000                       # number of ReadSharedReq miss ticks (Tick)
system.l2_cache.ReadSharedReq.missLatency::cpu.data   1114171000                       # number of ReadSharedReq miss ticks (Tick)
system.l2_cache.ReadSharedReq.missLatency::total   1350478000                       # number of ReadSharedReq miss ticks (Tick)
system.l2_cache.ReadSharedReq.accesses::cpu.inst       581992                       # number of ReadSharedReq accesses(hits+misses) (Count)
system.l2_cache.ReadSharedReq.accesses::cpu.data      6518768                       # number of ReadSharedReq accesses(hits+misses) (Count)
system.l2_cache.ReadSharedReq.accesses::total      7100760                       # number of ReadSharedReq accesses(hits+misses) (Count)
system.l2_cache.ReadSharedReq.missRate::cpu.inst     0.005940                       # miss rate for ReadSharedReq accesses (Ratio)
system.l2_cache.ReadSharedReq.missRate::cpu.data     0.002294                       # miss rate for ReadSharedReq accesses (Ratio)
system.l2_cache.ReadSharedReq.missRate::total     0.002593                       # miss rate for ReadSharedReq accesses (Ratio)
system.l2_cache.ReadSharedReq.avgMissLatency::cpu.inst 68356.089095                       # average ReadSharedReq miss latency ((Tick/Count))
system.l2_cache.ReadSharedReq.avgMissLatency::cpu.data 74516.519529                       # average ReadSharedReq miss latency ((Tick/Count))
system.l2_cache.ReadSharedReq.avgMissLatency::total 73359.661035                       # average ReadSharedReq miss latency ((Tick/Count))
system.l2_cache.ReadSharedReq.mshrMisses::cpu.inst         3457                       # number of ReadSharedReq MSHR misses (Count)
system.l2_cache.ReadSharedReq.mshrMisses::cpu.data        14952                       # number of ReadSharedReq MSHR misses (Count)
system.l2_cache.ReadSharedReq.mshrMisses::total        18409                       # number of ReadSharedReq MSHR misses (Count)
system.l2_cache.ReadSharedReq.mshrMissLatency::cpu.inst    232850000                       # number of ReadSharedReq MSHR miss ticks (Tick)
system.l2_cache.ReadSharedReq.mshrMissLatency::cpu.data   1099219000                       # number of ReadSharedReq MSHR miss ticks (Tick)
system.l2_cache.ReadSharedReq.mshrMissLatency::total   1332069000                       # number of ReadSharedReq MSHR miss ticks (Tick)
system.l2_cache.ReadSharedReq.mshrMissRate::cpu.inst     0.005940                       # mshr miss rate for ReadSharedReq accesses (Ratio)
system.l2_cache.ReadSharedReq.mshrMissRate::cpu.data     0.002294                       # mshr miss rate for ReadSharedReq accesses (Ratio)
system.l2_cache.ReadSharedReq.mshrMissRate::total     0.002593                       # mshr miss rate for ReadSharedReq accesses (Ratio)
system.l2_cache.ReadSharedReq.avgMshrMissLatency::cpu.inst 67356.089095                       # average ReadSharedReq mshr miss latency ((Tick/Count))
system.l2_cache.ReadSharedReq.avgMshrMissLatency::cpu.data 73516.519529                       # average ReadSharedReq mshr miss latency ((Tick/Count))
system.l2_cache.ReadSharedReq.avgMshrMissLatency::total 72359.661035                       # average ReadSharedReq mshr miss latency ((Tick/Count))
system.l2_cache.WritebackDirty.hits::writebacks       771199                       # number of WritebackDirty hits (Count)
system.l2_cache.WritebackDirty.hits::total       771199                       # number of WritebackDirty hits (Count)
system.l2_cache.WritebackDirty.accesses::writebacks       771199                       # number of WritebackDirty accesses(hits+misses) (Count)
system.l2_cache.WritebackDirty.accesses::total       771199                       # number of WritebackDirty accesses(hits+misses) (Count)
system.l2_cache.power_state.pwrStateResidencyTicks::UNDEFINED 1006797779000                       # Cumulative time (in ticks) in various power states (Tick)
system.l2_cache.tags.tagsInUse             511.987580                       # Average ticks per tags in use ((Tick/Count))
system.l2_cache.tags.totalRefs                 150595                       # Total number of references to valid blocks. (Count)
system.l2_cache.tags.sampledRefs                29446                       # Sample count of references to valid blocks. (Count)
system.l2_cache.tags.avgRefs                 5.114277                       # Average number of references to valid blocks. ((Count/Count))
system.l2_cache.tags.warmupTick                 77000                       # The tick when the warmup percentage was hit. (Tick)
system.l2_cache.tags.occupancies::writebacks     0.039239                       # Average occupied blocks per tick, per requestor ((Count/Tick))
system.l2_cache.tags.occupancies::cpu.inst    35.142725                       # Average occupied blocks per tick, per requestor ((Count/Tick))
system.l2_cache.tags.occupancies::cpu.data   476.805616                       # Average occupied blocks per tick, per requestor ((Count/Tick))
system.l2_cache.tags.avgOccs::writebacks     0.000077                       # Average percentage of cache occupancy ((Ratio/Tick))
system.l2_cache.tags.avgOccs::cpu.inst       0.068638                       # Average percentage of cache occupancy ((Ratio/Tick))
system.l2_cache.tags.avgOccs::cpu.data       0.931261                       # Average percentage of cache occupancy ((Ratio/Tick))
system.l2_cache.tags.avgOccs::total          0.999976                       # Average percentage of cache occupancy ((Ratio/Tick))
system.l2_cache.tags.occupanciesTaskId::1024          512                       # Occupied blocks per task id (Count)
system.l2_cache.tags.ageTaskId_1024::0              3                       # Occupied blocks per task id, per block age (Count)
system.l2_cache.tags.ageTaskId_1024::4            509                       # Occupied blocks per task id, per block age (Count)
system.l2_cache.tags.ratioOccsTaskId::1024            1                       # Ratio of occupied blocks and all blocks, per task id (Ratio)
system.l2_cache.tags.tagAccesses            116899670                       # Number of tag accesses (Count)
system.l2_cache.tags.dataAccesses           116899670                       # Number of data accesses (Count)
system.l2_cache.tags.power_state.pwrStateResidencyTicks::UNDEFINED 1006797779000                       # Cumulative time (in ticks) in various power states (Tick)
system.mem_ctrl.avgPriority_writebacks::samples     11586.00                       # Average QoS priority value for accepted requests (Count)
system.mem_ctrl.avgPriority_cpu.inst::samples      3457.00                       # Average QoS priority value for accepted requests (Count)
system.mem_ctrl.avgPriority_cpu.data::samples     26226.00                       # Average QoS priority value for accepted requests (Count)
system.mem_ctrl.priorityMinLatency       0.000000018750                       # per QoS priority minimum request to response latency (Second)
system.mem_ctrl.priorityMaxLatency       0.000721436500                       # per QoS priority maximum request to response latency (Second)
system.mem_ctrl.numReadWriteTurnArounds           708                       # Number of turnarounds from READ to WRITE (Count)
system.mem_ctrl.numWriteReadTurnArounds           708                       # Number of turnarounds from WRITE to READ (Count)
system.mem_ctrl.numStayReadState               328936                       # Number of times bus staying in READ state (Count)
system.mem_ctrl.numStayWriteState               10860                       # Number of times bus staying in WRITE state (Count)
system.mem_ctrl.readReqs                        29822                       # Number of read requests accepted (Count)
system.mem_ctrl.writeReqs                       11591                       # Number of write requests accepted (Count)
system.mem_ctrl.readBursts                      29822                       # Number of controller read bursts, including those serviced by the write queue (Count)
system.mem_ctrl.writeBursts                     11591                       # Number of controller write bursts, including those merged in the write queue (Count)
system.mem_ctrl.servicedByWrQ                     139                       # Number of controller read bursts serviced by the write queue (Count)
system.mem_ctrl.mergedWrBursts                      5                       # Number of controller write bursts merged with an existing one (Count)
system.mem_ctrl.neitherReadNorWriteReqs             0                       # Number of requests that are neither read nor write (Count)
system.mem_ctrl.avgRdQLen                        1.00                       # Average read queue length when enqueuing ((Count/Tick))
system.mem_ctrl.avgWrQLen                       26.98                       # Average write queue length when enqueuing ((Count/Tick))
system.mem_ctrl.numRdRetry                          0                       # Number of times read queue was full causing retry (Count)
system.mem_ctrl.numWrRetry                          0                       # Number of times write queue was full causing retry (Count)
system.mem_ctrl.readPktSize::0                      0                       # Read request sizes (log2) (Count)
system.mem_ctrl.readPktSize::1                      0                       # Read request sizes (log2) (Count)
system.mem_ctrl.readPktSize::2                      0                       # Read request sizes (log2) (Count)
system.mem_ctrl.readPktSize::3                      0                       # Read request sizes (log2) (Count)
system.mem_ctrl.readPktSize::4                      0                       # Read request sizes (log2) (Count)
system.mem_ctrl.readPktSize::5                      0                       # Read request sizes (log2) (Count)
system.mem_ctrl.readPktSize::6                  29822                       # Read request sizes (log2) (Count)
system.mem_ctrl.writePktSize::0                     0                       # Write request sizes (log2) (Count)
system.mem_ctrl.writePktSize::1                     0                       # Write request sizes (log2) (Count)
system.mem_ctrl.writePktSize::2                     0                       # Write request sizes (log2) (Count)
system.mem_ctrl.writePktSize::3                     0                       # Write request sizes (log2) (Count)
system.mem_ctrl.writePktSize::4                     0                       # Write request sizes (log2) (Count)
system.mem_ctrl.writePktSize::5                     0                       # Write request sizes (log2) (Count)
system.mem_ctrl.writePktSize::6                 11591                       # Write request sizes (log2) (Count)
system.mem_ctrl.rdQLenPdf::0                    29681                       # What read queue length does an incoming req see (Count)
system.mem_ctrl.rdQLenPdf::1                        2                       # What read queue length does an incoming req see (Count)
system.mem_ctrl.rdQLenPdf::2                        0                       # What read queue length does an incoming req see (Count)
system.mem_ctrl.rdQLenPdf::3                        0                       # What read queue length does an incoming req see (Count)
system.mem_ctrl.rdQLenPdf::4                        0                       # What read queue length does an incoming req see (Count)
system.mem_ctrl.rdQLenPdf::5                        0                       # What read queue length does an incoming req see (Count)
system.mem_ctrl.rdQLenPdf::6                        0                       # What read queue length does an incoming req see (Count)
system.mem_ctrl.rdQLenPdf::7                        0                       # What read queue length does an incoming req see (Count)
system.mem_ctrl.rdQLenPdf::8                        0                       # What read queue length does an incoming req see (Count)
system.mem_ctrl.rdQLenPdf::9                        0                       # What read queue length does an incoming req see (Count)
system.mem_ctrl.rdQLenPdf::10                       0                       # What read queue length does an incoming req see (Count)
system.mem_ctrl.rdQLenPdf::11                       0                       # What read queue length does an incoming req see (Count)
system.mem_ctrl.rdQLenPdf::12                       0                       # What read queue length does an incoming req see (Count)
system.mem_ctrl.rdQLenPdf::13                       0                       # What read queue length does an incoming req see (Count)
system.mem_ctrl.rdQLenPdf::14                       0                       # What read queue length does an incoming req see (Count)
system.mem_ctrl.rdQLenPdf::15                       0                       # What read queue length does an incoming req see (Count)
system.mem_ctrl.rdQLenPdf::16                       0                       # What read queue length does an incoming req see (Count)
system.mem_ctrl.rdQLenPdf::17                       0                       # What read queue length does an incoming req see (Count)
system.mem_ctrl.rdQLenPdf::18                       0                       # What read queue length does an incoming req see (Count)
system.mem_ctrl.rdQLenPdf::19                       0                       # What read queue length does an incoming req see (Count)
system.mem_ctrl.rdQLenPdf::20                       0                       # What read queue length does an incoming req see (Count)
system.mem_ctrl.rdQLenPdf::21                       0                       # What read queue length does an incoming req see (Count)
system.mem_ctrl.rdQLenPdf::22                       0                       # What read queue length does an incoming req see (Count)
system.mem_ctrl.rdQLenPdf::23                       0                       # What read queue length does an incoming req see (Count)
system.mem_ctrl.rdQLenPdf::24                       0                       # What read queue length does an incoming req see (Count)
system.mem_ctrl.rdQLenPdf::25                       0                       # What read queue length does an incoming req see (Count)
system.mem_ctrl.rdQLenPdf::26                       0                       # What read queue length does an incoming req see (Count)
system.mem_ctrl.rdQLenPdf::27                       0                       # What read queue length does an incoming req see (Count)
system.mem_ctrl.rdQLenPdf::28                       0                       # What read queue length does an incoming req see (Count)
system.mem_ctrl.rdQLenPdf::29                       0                       # What read queue length does an incoming req see (Count)
system.mem_ctrl.rdQLenPdf::30                       0                       # What read queue length does an incoming req see (Count)
system.mem_ctrl.rdQLenPdf::31                       0                       # What read queue length does an incoming req see (Count)
system.mem_ctrl.wrQLenPdf::0                        1                       # What write queue length does an incoming req see (Count)
[...]
system.mem_ctrl.dram.bytesWritten::total        34112                       # Number of bytes written to this memory (Byte)
system.mem_ctrl.dram.numReads::cpu.inst           819                       # Number of read requests responded to by this memory (Count)
system.mem_ctrl.dram.numReads::cpu.data           846                       # Number of read requests responded to by this memory (Count)
system.mem_ctrl.dram.numReads::total             1665                       # Number of read requests responded to by this memory (Count)
system.mem_ctrl.dram.numWrites::writebacks          533                       # Number of write requests responded to by this memory (Count)
system.mem_ctrl.dram.numWrites::total             533                       # Number of write requests responded to by this memory (Count)
system.mem_ctrl.dram.bwRead::cpu.inst       239413525                       # Total read bandwidth from this memory ((Byte/Second))
system.mem_ctrl.dram.bwRead::cpu.data       247306278                       # Total read bandwidth from this memory ((Byte/Second))
system.mem_ctrl.dram.bwRead::total          486719803                       # Total read bandwidth from this memory ((Byte/Second))
system.mem_ctrl.dram.bwInstRead::cpu.inst    239413525                       # Instruction read bandwidth from this memory ((Byte/Second))
system.mem_ctrl.dram.bwInstRead::total      239413525                       # Instruction read bandwidth from this memory ((Byte/Second))
system.mem_ctrl.dram.bwWrite::writebacks    155808802                       # Write bandwidth from this memory ((Byte/Second))
system.mem_ctrl.dram.bwWrite::total         155808802                       # Write bandwidth from this memory ((Byte/Second))
system.mem_ctrl.dram.bwTotal::writebacks    155808802                       # Total bandwidth to/from this memory ((Byte/Second))
system.mem_ctrl.dram.bwTotal::cpu.inst      239413525                       # Total bandwidth to/from this memory ((Byte/Second))
system.mem_ctrl.dram.bwTotal::cpu.data      247306278                       # Total bandwidth to/from this memory ((Byte/Second))
system.mem_ctrl.dram.bwTotal::total         642528604                       # Total bandwidth to/from this memory ((Byte/Second))
system.mem_ctrl.dram.readBursts                  1647                       # Number of DRAM read bursts (Count)
system.mem_ctrl.dram.writeBursts                  546                       # Number of DRAM write bursts (Count)
system.mem_ctrl.dram.perBankRdBursts::0           166                       # Per bank write bursts (Count)
system.mem_ctrl.dram.perBankRdBursts::1           110                       # Per bank write bursts (Count)
system.mem_ctrl.dram.perBankRdBursts::2           101                       # Per bank write bursts (Count)
system.mem_ctrl.dram.perBankRdBursts::3            98                       # Per bank write bursts (Count)
system.mem_ctrl.dram.perBankRdBursts::4           139                       # Per bank write bursts (Count)
system.mem_ctrl.dram.perBankRdBursts::5           105                       # Per bank write bursts (Count)
system.mem_ctrl.dram.perBankRdBursts::6            88                       # Per bank write bursts (Count)
system.mem_ctrl.dram.perBankRdBursts::7            95                       # Per bank write bursts (Count)
system.mem_ctrl.dram.perBankRdBursts::8           103                       # Per bank write bursts (Count)
system.mem_ctrl.dram.perBankRdBursts::9            42                       # Per bank write bursts (Count)
system.mem_ctrl.dram.perBankRdBursts::10           36                       # Per bank write bursts (Count)
system.mem_ctrl.dram.perBankRdBursts::11           88                       # Per bank write bursts (Count)
system.mem_ctrl.dram.perBankRdBursts::12          161                       # Per bank write bursts (Count)
system.mem_ctrl.dram.perBankRdBursts::13          154                       # Per bank write bursts (Count)
system.mem_ctrl.dram.perBankRdBursts::14           86                       # Per bank write bursts (Count)
system.mem_ctrl.dram.perBankRdBursts::15           75                       # Per bank write bursts (Count)
system.mem_ctrl.dram.perBankWrBursts::0            33                       # Per bank write bursts (Count)
system.mem_ctrl.dram.perBankWrBursts::1            21                       # Per bank write bursts (Count)
system.mem_ctrl.dram.perBankWrBursts::2             1                       # Per bank write bursts (Count)
system.mem_ctrl.dram.perBankWrBursts::3             0                       # Per bank write bursts (Count)
system.mem_ctrl.dram.perBankWrBursts::4             9                       # Per bank write bursts (Count)
system.mem_ctrl.dram.perBankWrBursts::5             1                       # Per bank write bursts (Count)
system.mem_ctrl.dram.perBankWrBursts::6             0                       # Per bank write bursts (Count)
system.mem_ctrl.dram.perBankWrBursts::7             7                       # Per bank write bursts (Count)
system.mem_ctrl.dram.perBankWrBursts::8             5                       # Per bank write bursts (Count)
system.mem_ctrl.dram.perBankWrBursts::9            15                       # Per bank write bursts (Count)
system.mem_ctrl.dram.perBankWrBursts::10           70                       # Per bank write bursts (Count)
system.mem_ctrl.dram.perBankWrBursts::11          130                       # Per bank write bursts (Count)
system.mem_ctrl.dram.perBankWrBursts::12          159                       # Per bank write bursts (Count)
system.mem_ctrl.dram.perBankWrBursts::13           88                       # Per bank write bursts (Count)
system.mem_ctrl.dram.perBankWrBursts::14            7                       # Per bank write bursts (Count)
system.mem_ctrl.dram.perBankWrBursts::15            0                       # Per bank write bursts (Count)
system.mem_ctrl.dram.totQLat                 21938500                       # Total ticks spent queuing (Tick)
system.mem_ctrl.dram.totBusLat                8235000                       # Total ticks spent in databus transfers (Tick)
system.mem_ctrl.dram.totMemAccLat            52819750                       # Total ticks spent from burst creation until serviced by the DRAM (Tick)
system.mem_ctrl.dram.avgQLat                 13320.28                       # Average queueing delay per DRAM burst ((Tick/Count))
system.mem_ctrl.dram.avgBusLat                5000.00                       # Average bus latency per DRAM burst ((Tick/Count))
system.mem_ctrl.dram.avgMemAccLat            32070.28                       # Average memory access latency per DRAM burst ((Tick/Count))
system.mem_ctrl.dram.readRowHits                  952                       # Number of row buffer hits during reads (Count)
system.mem_ctrl.dram.writeRowHits                 467                       # Number of row buffer hits during writes (Count)
system.mem_ctrl.dram.readRowHitRate             57.80                       # Row buffer hit rate for reads (Ratio)
system.mem_ctrl.dram.writeRowHitRate            85.53                       # Row buffer hit rate for writes (Ratio)
system.mem_ctrl.dram.bytesPerActivate::samples          775                       # Bytes accessed per row activation (Byte)
system.mem_ctrl.dram.bytesPerActivate::mean   181.181935                       # Bytes accessed per row activation (Byte)
system.mem_ctrl.dram.bytesPerActivate::gmean   119.378102                       # Bytes accessed per row activation (Byte)
system.mem_ctrl.dram.bytesPerActivate::stdev   213.913713                       # Bytes accessed per row activation (Byte)
system.mem_ctrl.dram.bytesPerActivate::0-127          417     53.81%     53.81% # Bytes accessed per row activation (Byte)
system.mem_ctrl.dram.bytesPerActivate::128-255          195     25.16%     78.97% # Bytes accessed per row activation (Byte)
system.mem_ctrl.dram.bytesPerActivate::256-383           57      7.35%     86.32% # Bytes accessed per row activation (Byte)
system.mem_ctrl.dram.bytesPerActivate::384-511           38      4.90%     91.23% # Bytes accessed per row activation (Byte)
system.mem_ctrl.dram.bytesPerActivate::512-639           23      2.97%     94.19% # Bytes accessed per row activation (Byte)
system.mem_ctrl.dram.bytesPerActivate::640-767           10      1.29%     95.48% # Bytes accessed per row activation (Byte)
system.mem_ctrl.dram.bytesPerActivate::768-895            8      1.03%     96.52% # Bytes accessed per row activation (Byte)
system.mem_ctrl.dram.bytesPerActivate::896-1023           11      1.42%     97.94% # Bytes accessed per row activation (Byte)
system.mem_ctrl.dram.bytesPerActivate::1024-1151           16      2.06%    100.00% # Bytes accessed per row activation (Byte)
system.mem_ctrl.dram.bytesPerActivate::total          775                       # Bytes accessed per row activation (Byte)
system.mem_ctrl.dram.dramBytesRead             105408                       # Total bytes read (Byte)
system.mem_ctrl.dram.dramBytesWritten           34944                       # Total bytes written (Byte)
system.mem_ctrl.dram.avgRdBW               481.457967                       # Average DRAM read bandwidth in MiBytes/s ((Byte/Second))
system.mem_ctrl.dram.avgWrBW               159.609016                       # Average DRAM write bandwidth in MiBytes/s ((Byte/Second))
system.mem_ctrl.dram.peakBW                  12800.00                       # Theoretical peak bandwidth in MiByte/s ((Byte/Second))
system.mem_ctrl.dram.busUtil                     5.01                       # Data bus utilization in percentage (Ratio)
system.mem_ctrl.dram.busUtilRead                 3.76                       # Data bus utilization in percentage for reads (Ratio)
system.mem_ctrl.dram.busUtilWrite                1.25                       # Data bus utilization in percentage for writes (Ratio)
system.mem_ctrl.dram.pageHitRate                64.71                       # Row buffer hit rate, read and write combined (Ratio)
system.mem_ctrl.dram.power_state.pwrStateResidencyTicks::UNDEFINED    218935000                       # Cumulative time (in ticks) in various power states (Tick)
system.mem_ctrl.dram.rank0.actEnergy          2791740                       # Energy for activate commands per rank (pJ) (Joule)
system.mem_ctrl.dram.rank0.preEnergy          1487640                       # Energy for precharge commands per rank (pJ) (Joule)
system.mem_ctrl.dram.rank0.readEnergy         6440280                       # Energy for read commands per rank (pJ) (Joule)
system.mem_ctrl.dram.rank0.writeEnergy         375840                       # Energy for write commands per rank (pJ) (Joule)
system.mem_ctrl.dram.rank0.refreshEnergy 17824560.000000                       # Energy for refresh commands per rank (pJ) (Joule)
system.mem_ctrl.dram.rank0.actBackEnergy     95082840                       # Energy for active background per rank (pJ) (Joule)
system.mem_ctrl.dram.rank0.preBackEnergy      4095360                       # Energy for precharge background per rank (pJ) (Joule)
system.mem_ctrl.dram.rank0.actPowerDownEnergy            0                       # Energy for active power-down per rank (pJ) (Joule)
system.mem_ctrl.dram.rank0.prePowerDownEnergy            0                       # Energy for precharge power-down per rank (pJ) (Joule)
system.mem_ctrl.dram.rank0.selfRefreshEnergy            0                       # Energy for self refresh per rank (pJ) (Joule)
system.mem_ctrl.dram.rank0.totalEnergy      128098260                       # Total energy per rank (pJ) (Joule)
system.mem_ctrl.dram.rank0.averagePower    585.097221                       # Core power per rank (mW) (Watt)
system.mem_ctrl.dram.rank0.totalIdleTime            0                       # Total Idle time Per DRAM Rank (Tick)
system.mem_ctrl.dram.rank0.pwrStateTime::IDLE      9832000                       # Time in different power states (Tick)
system.mem_ctrl.dram.rank0.pwrStateTime::REF      7280750                       # Time in different power states (Tick)
system.mem_ctrl.dram.rank0.pwrStateTime::SREF            0                       # Time in different power states (Tick)
system.mem_ctrl.dram.rank0.pwrStateTime::PRE_PDN            0                       # Time in different power states (Tick)
system.mem_ctrl.dram.rank0.pwrStateTime::ACT    201822250                       # Time in different power states (Tick)
system.mem_ctrl.dram.rank0.pwrStateTime::ACT_PDN            0                       # Time in different power states (Tick)
system.mem_ctrl.dram.rank1.actEnergy          2734620                       # Energy for activate commands per rank (pJ) (Joule)
system.mem_ctrl.dram.rank1.preEnergy          1453485                       # Energy for precharge commands per rank (pJ) (Joule)
system.mem_ctrl.dram.rank1.readEnergy         5319300                       # Energy for read commands per rank (pJ) (Joule)
system.mem_ctrl.dram.rank1.writeEnergy        2474280                       # Energy for write commands per rank (pJ) (Joule)
system.mem_ctrl.dram.rank1.refreshEnergy 17824560.000000                       # Energy for refresh commands per rank (pJ) (Joule)
system.mem_ctrl.dram.rank1.actBackEnergy     94509420                       # Energy for active background per rank (pJ) (Joule)
system.mem_ctrl.dram.rank1.preBackEnergy      4578240                       # Energy for precharge background per rank (pJ) (Joule)
system.mem_ctrl.dram.rank1.actPowerDownEnergy            0                       # Energy for active power-down per rank (pJ) (Joule)
system.mem_ctrl.dram.rank1.prePowerDownEnergy            0                       # Energy for precharge power-down per rank (pJ) (Joule)
system.mem_ctrl.dram.rank1.selfRefreshEnergy            0                       # Energy for self refresh per rank (pJ) (Joule)
system.mem_ctrl.dram.rank1.totalEnergy      128893905                       # Total energy per rank (pJ) (Joule)
system.mem_ctrl.dram.rank1.averagePower    588.731381                       # Core power per rank (mW) (Watt)
system.mem_ctrl.dram.rank1.totalIdleTime            0                       # Total Idle time Per DRAM Rank (Tick)
system.mem_ctrl.dram.rank1.pwrStateTime::IDLE     11076500                       # Time in different power states (Tick)
system.mem_ctrl.dram.rank1.pwrStateTime::REF      7280750                       # Time in different power states (Tick)
system.mem_ctrl.dram.rank1.pwrStateTime::SREF            0                       # Time in different power states (Tick)
system.mem_ctrl.dram.rank1.pwrStateTime::PRE_PDN            0                       # Time in different power states (Tick)
system.mem_ctrl.dram.rank1.pwrStateTime::ACT    200577750                       # Time in different power states (Tick)
system.mem_ctrl.dram.rank1.pwrStateTime::ACT_PDN            0                       # Time in different power states (Tick)
system.mem_ctrl.power_state.pwrStateResidencyTicks::UNDEFINED    218935000                       # Cumulative time (in ticks) in various power states (Tick)
system.membus.transDist::ReadResp                1598                       # Transaction distribution (Count)
system.membus.transDist::WritebackDirty           533                       # Transaction distribution (Count)
system.membus.transDist::CleanEvict              1161                       # Transaction distribution (Count)
system.membus.transDist::ReadExReq                 67                       # Transaction distribution (Count)
system.membus.transDist::ReadExResp                67                       # Transaction distribution (Count)
system.membus.transDist::ReadSharedReq           1598                       # Transaction distribution (Count)
system.membus.pktCount_system.l2_cache.mem_side_port::system.mem_ctrl.port         5024                       # Packet count per connected requestor and responder (Count)
system.membus.pktCount_system.l2_cache.mem_side_port::total         5024                       # Packet count per connected requestor and responder (Count)
system.membus.pktCount::total                    5024                       # Packet count per connected requestor and responder (Count)
system.membus.pktSize_system.l2_cache.mem_side_port::system.mem_ctrl.port       140672                       # Cumulative packet size per connected requestor and responder (Byte)
system.membus.pktSize_system.l2_cache.mem_side_port::total       140672                       # Cumulative packet size per connected requestor and responder (Byte)
system.membus.pktSize::total                   140672                       # Cumulative packet size per connected requestor and responder (Byte)
system.membus.snoops                                0                       # Total snoops (Count)
system.membus.snoopTraffic                          0                       # Total snoop traffic (Byte)
system.membus.snoopFanout::samples               1665                       # Request fanout histogram (Count)
system.membus.snoopFanout::mean                     0                       # Request fanout histogram (Count)
system.membus.snoopFanout::stdev                    0                       # Request fanout histogram (Count)
system.membus.snoopFanout::underflows               0      0.00%      0.00% # Request fanout histogram (Count)
system.membus.snoopFanout::0                     1665    100.00%    100.00% # Request fanout histogram (Count)
system.membus.snoopFanout::1                        0      0.00%    100.00% # Request fanout histogram (Count)
system.membus.snoopFanout::overflows                0      0.00%    100.00% # Request fanout histogram (Count)
system.membus.snoopFanout::min_value                0                       # Request fanout histogram (Count)
system.membus.snoopFanout::max_value                0                       # Request fanout histogram (Count)
system.membus.snoopFanout::total                 1665                       # Request fanout histogram (Count)
system.membus.power_state.pwrStateResidencyTicks::UNDEFINED    218935000                       # Cumulative time (in ticks) in various power states (Tick)
system.membus.reqLayer2.occupancy             5491000                       # Layer occupancy (ticks) (Tick)
system.membus.reqLayer2.utilization               0.0                       # Layer utilization (Ratio)
system.membus.respLayer2.occupancy            8994250                       # Layer occupancy (ticks) (Tick)
system.membus.respLayer2.utilization              0.0                       # Layer utilization (Ratio)
system.membus.snoop_filter.totRequests           3359                       # Total number of requests made to the snoop filter. (Count)
system.membus.snoop_filter.hitSingleRequests         1694                       # Number of requests hitting in the snoop filter with a single holder of the requested data. (Count)
system.membus.snoop_filter.hitMultiRequests            0                       # Number of requests hitting in the snoop filter with multiple (>1) holders of the requested data. (Count)
system.membus.snoop_filter.totSnoops                0                       # Total number of snoops made to the snoop filter. (Count)
system.membus.snoop_filter.hitSingleSnoops            0                       # Number of snoops hitting in the snoop filter with a single holder of the requested data. (Count)
system.membus.snoop_filter.hitMultiSnoops            0                       # Number of snoops hitting in the snoop filter with multiple (>1) holders of the requested data. (Count)
system.workload.inst.arm                            0                       # number of arm instructions executed (Count)
system.workload.inst.quiesce                        0                       # number of quiesce instructions executed (Count)

---------- End Simulation Statistics   ----------
