
---------- Begin Simulation Statistics ----------
simSeconds                                   1.018069                       # Number of seconds simulated (Second)
simTicks                                 1018068513000                       # Number of ticks simulated (Tick)
finalTick                                1018068513000                       # Number of ticks from beginning of simulation (restored from checkpoints and never reset) (Tick)
simFreq                                  1000000000000                       # The number of ticks per simulated second ((Tick/Second))
hostSeconds                                    495.12                       # Real time elapsed on the host (Second)
hostTickRate                               2056187851                       # The number of ticks simulated per host second (ticks/s) ((Tick/Second))
hostMemory                                    8617228                       # Number of bytes of host memory used (Byte)
simInsts                                    384932870                       # Number of instructions simulated (Count)
simOps                                      688686071                       # Number of ops (including micro ops) simulated (Count)
hostInstRate                                   777444                       # Simulator instruction rate (inst/s) ((Count/Second))
hostOpRate                                    1390928                       # Simulator op (including micro ops) rate (op/s) ((Count/Second))
system.clk_domain.clock                          1000                       # Clock period in ticks (Tick)
system.clk_domain.voltage_domain.voltage            1                       # Voltage in Volts (Volt)
system.cpu.numCycles                       1018068513                       # Number of cpu cycles simulated (Cycle)
system.cpu.cpi                               2.644792                       # CPI: cycles per instruction (core level) ((Cycle/Count))
system.cpu.ipc                               0.378102                       # IPC: instructions per cycle (core level) ((Count/Cycle))
system.cpu.numWorkItemsStarted                      0                       # Number of work items this cpu started (Count)
system.cpu.numWorkItemsCompleted                    0                       # Number of work items this cpu completed (Count)
system.cpu.commitStats0.numInsts            384933360                       # Number of instructions committed (thread level) (Count)
system.cpu.commitStats0.numOps              688686771                       # Number of ops (including micro ops) committed (thread level) (Count)
system.cpu.commitStats0.numInstsNotNOP              0                       # Number of instructions committed excluding NOPs or prefetches (Count)
system.cpu.commitStats0.numOpsNotNOP                0                       # Number of Ops (including micro ops) Simulated (Count)
system.cpu.commitStats0.cpi                  2.644792                       # CPI: cycles per instruction (thread level) ((Cycle/Count))
system.cpu.commitStats0.ipc                  0.378102                       # IPC: instructions per cycle (thread level) ((Count/Cycle))
system.cpu.commitStats0.numMemRefs                  0                       # Number of memory references committed (Count)
system.cpu.commitStats0.numFpInsts           24461988                       # Number of float instructions (Count)
system.cpu.commitStats0.numIntInsts         670702058                       # Number of integer instructions (Count)
system.cpu.commitStats0.numLoadInsts         93451735                       # Number of load instructions (Count)
system.cpu.commitStats0.numStoreInsts        64449013                       # Number of store instructions (Count)
system.cpu.commitStats0.numVecInsts                 0                       # Number of vector instructions (Count)
system.cpu.commitStats0.committedInstType::No_OpClass      6784561      0.99%      0.99% # Class of committed instruction. (Count)
system.cpu.commitStats0.committedInstType::IntAlu    503047373     73.04%     74.03% # Class of committed instruction. (Count)
system.cpu.commitStats0.committedInstType::IntMult          310      0.00%     74.03% # Class of committed instruction. (Count)
system.cpu.commitStats0.committedInstType::IntDiv     12160154      1.77%     75.80% # Class of committed instruction. (Count)
system.cpu.commitStats0.committedInstType::FloatAdd      2683018      0.39%     76.18% # Class of committed instruction. (Count)
system.cpu.commitStats0.committedInstType::FloatCmp            0      0.00%     76.18% # Class of committed instruction. (Count)
system.cpu.commitStats0.committedInstType::FloatCvt         1264      0.00%     76.19% # Class of committed instruction. (Count)
system.cpu.commitStats0.committedInstType::FloatMult            0      0.00%     76.19% # Class of committed instruction. (Count)
system.cpu.commitStats0.committedInstType::FloatMultAcc            0      0.00%     76.19% # Class of committed instruction. (Count)
system.cpu.commitStats0.committedInstType::FloatDiv            0      0.00%     76.19% # Class of committed instruction. (Count)
system.cpu.commitStats0.committedInstType::FloatMisc            0      0.00%     76.19% # Class of committed instruction. (Count)
system.cpu.commitStats0.committedInstType::FloatSqrt            0      0.00%     76.19% # Class of committed instruction. (Count)
system.cpu.commitStats0.committedInstType::SimdAdd         6580      0.00%     76.19% # Class of committed instruction. (Count)
system.cpu.commitStats0.committedInstType::SimdAddAcc            0      0.00%     76.19% # Class of committed instruction. (Count)
system.cpu.commitStats0.committedInstType::SimdAlu      2723585      0.40%     76.58% # Class of committed instruction. (Count)
system.cpu.commitStats0.committedInstType::SimdCmp            6      0.00%     76.58% # Class of committed instruction. (Count)
system.cpu.commitStats0.committedInstType::SimdCvt        13630      0.00%     76.58% # Class of committed instruction. (Count)
system.cpu.commitStats0.committedInstType::SimdMisc      3361989      0.49%     77.07% # Class of committed instruction. (Count)
system.cpu.commitStats0.committedInstType::SimdMult            0      0.00%     77.07% # Class of committed instruction. (Count)
system.cpu.commitStats0.committedInstType::SimdMultAcc            0      0.00%     77.07% # Class of committed instruction. (Count)
system.cpu.commitStats0.committedInstType::SimdMatMultAcc            0      0.00%     77.07% # Class of committed instruction. (Count)
system.cpu.commitStats0.committedInstType::SimdShift         2065      0.00%     77.07% # Class of committed instruction. (Count)
system.cpu.commitStats0.committedInstType::SimdShiftAcc            0      0.00%     77.07% # Class of committed instruction. (Count)
system.cpu.commitStats0.committedInstType::SimdDiv            0      0.00%     77.07% # Class of committed instruction. (Count)
system.cpu.commitStats0.committedInstType::SimdSqrt            0      0.00%     77.07% # Class of committed instruction. (Count)
system.cpu.commitStats0.committedInstType::SimdFloatAdd          213      0.00%     77.07% # Class of committed instruction. (Count)
system.cpu.commitStats0.committedInstType::SimdFloatAlu            0      0.00%     77.07% # Class of committed instruction. (Count)
system.cpu.commitStats0.committedInstType::SimdFloatCmp            0      0.00%     77.07% # Class of committed instruction. (Count)
system.cpu.commitStats0.committedInstType::SimdFloatCvt         1062      0.00%     77.07% # Class of committed instruction. (Count)
system.cpu.commitStats0.committedInstType::SimdFloatDiv          107      0.00%     77.07% # Class of committed instruction. (Count)
system.cpu.commitStats0.committedInstType::SimdFloatMisc            0      0.00%     77.07% # Class of committed instruction. (Count)
system.cpu.commitStats0.committedInstType::SimdFloatMult          106      0.00%     77.07% # Class of committed instruction. (Count)
system.cpu.commitStats0.committedInstType::SimdFloatMultAcc            0      0.00%     77.07% # Class of committed instruction. (Count)
system.cpu.commitStats0.committedInstType::SimdFloatMatMultAcc            0      0.00%     77.07% # Class of committed instruction. (Count)
system.cpu.commitStats0.committedInstType::SimdFloatSqrt            0      0.00%     77.07% # Class of committed instruction. (Count)
system.cpu.commitStats0.committedInstType::SimdReduceAdd            0      0.00%     77.07% # Class of committed instruction. (Count)
system.cpu.commitStats0.committedInstType::SimdReduceAlu            0      0.00%     77.07% # Class of committed instruction. (Count)
system.cpu.commitStats0.committedInstType::SimdReduceCmp            0      0.00%     77.07% # Class of committed instruction. (Count)
system.cpu.commitStats0.committedInstType::SimdFloatReduceAdd            0      0.00%     77.07% # Class of committed instruction. (Count)
system.cpu.commitStats0.committedInstType::SimdFloatReduceCmp            0      0.00%     77.07% # Class of committed instruction. (Count)
system.cpu.commitStats0.committedInstType::SimdAes            0      0.00%     77.07% # Class of committed instruction. (Count)
system.cpu.commitStats0.committedInstType::SimdAesMix            0      0.00%     77.07% # Class of committed instruction. (Count)
system.cpu.commitStats0.committedInstType::SimdSha1Hash            0      0.00%     77.07% # Class of committed instruction. (Count)
system.cpu.commitStats0.committedInstType::SimdSha1Hash2            0      0.00%     77.07% # Class of committed instruction. (Count)
system.cpu.commitStats0.committedInstType::SimdSha256Hash            0      0.00%     77.07% # Class of committed instruction. (Count)
system.cpu.commitStats0.committedInstType::SimdSha256Hash2            0      0.00%     77.07% # Class of committed instruction. (Count)
system.cpu.commitStats0.committedInstType::SimdShaSigma2            0      0.00%     77.07% # Class of committed instruction. (Count)
system.cpu.commitStats0.committedInstType::SimdShaSigma3            0      0.00%     77.07% # Class of committed instruction. (Count)
system.cpu.commitStats0.committedInstType::SimdPredAlu            0      0.00%     77.07% # Class of committed instruction. (Count)
system.cpu.commitStats0.committedInstType::Matrix            0      0.00%     77.07% # Class of committed instruction. (Count)
system.cpu.commitStats0.committedInstType::MatrixMov            0      0.00%     77.07% # Class of committed instruction. (Count)
system.cpu.commitStats0.committedInstType::MatrixOP            0      0.00%     77.07% # Class of committed instruction. (Count)
system.cpu.commitStats0.committedInstType::MemRead     91399146     13.27%     90.34% # Class of committed instruction. (Count)
system.cpu.commitStats0.committedInstType::MemWrite     54854418      7.97%     98.31% # Class of committed instruction. (Count)
system.cpu.commitStats0.committedInstType::FloatMemRead      2052589      0.30%     98.61% # Class of committed instruction. (Count)
system.cpu.commitStats0.committedInstType::FloatMemWrite      9594595      1.39%    100.00% # Class of committed instruction. (Count)
system.cpu.commitStats0.committedInstType::IprAccess            0      0.00%    100.00% # Class of committed instruction. (Count)
system.cpu.commitStats0.committedInstType::InstPrefetch            0      0.00%    100.00% # Class of committed instruction. (Count)
system.cpu.commitStats0.committedInstType::SimdUnitStrideLoad            0      0.00%    100.00% # Class of committed instruction. (Count)
system.cpu.commitStats0.committedInstType::SimdUnitStrideStore            0      0.00%    100.00% # Class of committed instruction. (Count)
system.cpu.commitStats0.committedInstType::SimdUnitStrideMaskLoad            0      0.00%    100.00% # Class of committed instruction. (Count)
system.cpu.commitStats0.committedInstType::SimdUnitStrideMaskStore            0      0.00%    100.00% # Class of committed instruction. (Count)
system.cpu.commitStats0.committedInstType::SimdStridedLoad            0      0.00%    100.00% # Class of committed instruction. (Count)
system.cpu.commitStats0.committedInstType::SimdStridedStore            0      0.00%    100.00% # Class of committed instruction. (Count)
system.cpu.commitStats0.committedInstType::SimdIndexedLoad            0      0.00%    100.00% # Class of committed instruction. (Count)
system.cpu.commitStats0.committedInstType::SimdIndexedStore            0      0.00%    100.00% # Class of committed instruction. (Count)
system.cpu.commitStats0.committedInstType::SimdWholeRegisterLoad            0      0.00%    100.00% # Class of committed instruction. (Count)
system.cpu.commitStats0.committedInstType::SimdWholeRegisterStore            0      0.00%    100.00% # Class of committed instruction. (Count)
system.cpu.commitStats0.committedInstType::SimdUnitStrideFaultOnlyFirstLoad            0      0.00%    100.00% # Class of committed instruction. (Count)
system.cpu.commitStats0.committedInstType::SimdUnitStrideSegmentedLoad            0      0.00%    100.00% # Class of committed instruction. (Count)
system.cpu.commitStats0.committedInstType::SimdUnitStrideSegmentedStore            0      0.00%    100.00% # Class of committed instruction. (Count)
system.cpu.commitStats0.committedInstType::SimdExt            0      0.00%    100.00% # Class of committed instruction. (Count)
system.cpu.commitStats0.committedInstType::SimdFloatExt            0      0.00%    100.00% # Class of committed instruction. (Count)
system.cpu.commitStats0.committedInstType::SimdConfig            0      0.00%    100.00% # Class of committed instruction. (Count)
system.cpu.commitStats0.committedInstType::total    688686771                       # Class of committed instruction. (Count)
system.cpu.commitStats0.committedControl::IsControl     73964347                       # Class of control type instructions committed (Count)
system.cpu.commitStats0.committedControl::IsDirectControl     65180397                       # Class of control type instructions committed (Count)
system.cpu.commitStats0.committedControl::IsIndirectControl      8783622                       # Class of control type instructions committed (Count)
system.cpu.commitStats0.committedControl::IsCondControl     55947993                       # Class of control type instructions committed (Count)
system.cpu.commitStats0.committedControl::IsUncondControl     18016026                       # Class of control type instructions committed (Count)
system.cpu.commitStats0.committedControl::IsCall      4746388                       # Class of control type instructions committed (Count)
system.cpu.commitStats0.committedControl::IsReturn      4746383                       # Class of control type instructions committed (Count)
system.cpu.exec_context.thread_0.numMatAluAccesses            0                       # Number of matrix alu accesses (Count)
system.cpu.exec_context.thread_0.numCallsReturns      9492771                       # Number of times a function call or return occured (Count)
system.cpu.exec_context.thread_0.numMatInsts            0                       # Number of matrix instructions (Count)
system.cpu.exec_context.thread_0.numIdleCycles            0                       # Number of idle cycles (Cycle)
system.cpu.exec_context.thread_0.numBusyCycles   1018068513                       # Number of busy cycles (Cycle)
system.cpu.exec_context.thread_0.notIdleFraction            1                       # Percentage of non-idle cycles (Ratio)
system.cpu.exec_context.thread_0.idleFraction            0                       # Percentage of idle cycles (Ratio)
system.cpu.executeStats0.numInsts                   0                       # Number of executed instructions (Count)
system.cpu.executeStats0.numNop                     0                       # Number of nop insts executed (Count)
system.cpu.executeStats0.numBranches                0                       # Number of branches executed (Count)
system.cpu.executeStats0.numLoadInsts               0                       # Number of load instructions executed (Count)
system.cpu.executeStats0.numStoreInsts      157900748                       # Number of stores executed (Count)
system.cpu.executeStats0.instRate                   0                       # Inst execution rate ((Count/Cycle))
system.cpu.executeStats0.numFpAluAccesses     24461988                       # Number of float alu accesses (Count)
system.cpu.executeStats0.numFpRegReads       26517718                       # Number of times the floating registers were read (Count)
system.cpu.executeStats0.numFpRegWrites      14186959                       # Number of times the floating registers were written (Count)
system.cpu.executeStats0.numIntAluAccesses    670702058                       # Number of integer alu accesses (Count)
system.cpu.executeStats0.numIntRegReads     826820707                       # Number of times the integer registers were read (Count)
system.cpu.executeStats0.numIntRegWrites    499051743                       # Number of times the integer registers were written (Count)
system.cpu.executeStats0.numMemRefs         157900748                       # Number of memory refs (Count)
system.cpu.executeStats0.numMiscRegReads    311734014                       # Number of times the Misc registers were read (Count)
system.cpu.executeStats0.numMiscRegWrites          711                       # Number of times the Misc registers were written (Count)
system.cpu.executeStats0.numVecAluAccesses            0                       # Number of vector alu accesses (Count)
system.cpu.executeStats0.numDiscardedOps            0                       # Number of ops (including micro ops) which were discarded before commit (Count)
system.cpu.fetchStats0.numInsts             384933360                       # Number of instructions fetched (thread level) (Count)
system.cpu.fetchStats0.numOps               688686771                       # Number of ops (including micro ops) fetched (thread level) (Count)
system.cpu.fetchStats0.fetchRate             0.378102                       # Number of inst fetches per cycle ((Count/Cycle))
system.cpu.fetchStats0.numBranches           73964347                       # Number of branches fetched (Count)
system.cpu.fetchStats0.branchRate            0.072652                       # Number of branch fetches per cycle (Ratio)
system.cpu.fetchStats0.numFetchSuspends             0                       # Number of times Execute suspended instruction fetching (Count)
system.cpu.interrupts.clk_domain.clock          16000                       # Clock period in ticks (Tick)
system.cpu.l1d.demandHits::cpu.data         150040806                       # number of demand (read+write) hits (Count)
system.cpu.l1d.demandHits::total            150040806                       # number of demand (read+write) hits (Count)
system.cpu.l1d.overallHits::cpu.data        150040806                       # number of overall hits (Count)
system.cpu.l1d.overallHits::total           150040806                       # number of overall hits (Count)
system.cpu.l1d.demandMisses::cpu.data         7856394                       # number of demand (read+write) misses (Count)
system.cpu.l1d.demandMisses::total            7856394                       # number of demand (read+write) misses (Count)
system.cpu.l1d.overallMisses::cpu.data        7856394                       # number of overall misses (Count)
system.cpu.l1d.overallMisses::total           7856394                       # number of overall misses (Count)
system.cpu.l1d.demandMissLatency::cpu.data 289837372000                       # number of demand (read+write) miss ticks (Tick)
system.cpu.l1d.demandMissLatency::total  289837372000                       # number of demand (read+write) miss ticks (Tick)
system.cpu.l1d.overallMissLatency::cpu.data 289837372000                       # number of overall miss ticks (Tick)
system.cpu.l1d.overallMissLatency::total 289837372000                       # number of overall miss ticks (Tick)
system.cpu.l1d.demandAccesses::cpu.data     157897200                       # number of demand (read+write) accesses (Count)
system.cpu.l1d.demandAccesses::total        157897200                       # number of demand (read+write) accesses (Count)
system.cpu.l1d.overallAccesses::cpu.data    157897200                       # number of overall (read+write) accesses (Count)
system.cpu.l1d.overallAccesses::total       157897200                       # number of overall (read+write) accesses (Count)
system.cpu.l1d.demandMissRate::cpu.data      0.049756                       # miss rate for demand accesses (Ratio)
system.cpu.l1d.demandMissRate::total         0.049756                       # miss rate for demand accesses (Ratio)
system.cpu.l1d.overallMissRate::cpu.data     0.049756                       # miss rate for overall accesses (Ratio)
system.cpu.l1d.overallMissRate::total        0.049756                       # miss rate for overall accesses (Ratio)
system.cpu.l1d.demandAvgMissLatency::cpu.data 36891.908934                       # average overall miss latency in ticks ((Tick/Count))
system.cpu.l1d.demandAvgMissLatency::total 36891.908934                       # average overall miss latency in ticks ((Tick/Count))
system.cpu.l1d.overallAvgMissLatency::cpu.data 36891.908934                       # average overall miss latency ((Tick/Count))
system.cpu.l1d.overallAvgMissLatency::total 36891.908934                       # average overall miss latency ((Tick/Count))
system.cpu.l1d.blockedCycles::no_mshrs              0                       # number of cycles access was blocked (Cycle)
system.cpu.l1d.blockedCycles::no_targets            0                       # number of cycles access was blocked (Cycle)
system.cpu.l1d.blockedCauses::no_mshrs              0                       # number of times access was blocked (Count)
system.cpu.l1d.blockedCauses::no_targets            0                       # number of times access was blocked (Count)
system.cpu.l1d.avgBlocked::no_mshrs               nan                       # average number of cycles each access was blocked ((Cycle/Count))
system.cpu.l1d.avgBlocked::no_targets             nan                       # average number of cycles each access was blocked ((Cycle/Count))
system.cpu.l1d.writebacks::writebacks         4227544                       # number of writebacks (Count)
system.cpu.l1d.writebacks::total              4227544                       # number of writebacks (Count)
system.cpu.l1d.demandMshrMisses::cpu.data      7856394                       # number of demand (read+write) MSHR misses (Count)
system.cpu.l1d.demandMshrMisses::total        7856394                       # number of demand (read+write) MSHR misses (Count)
system.cpu.l1d.overallMshrMisses::cpu.data      7856394                       # number of overall MSHR misses (Count)
system.cpu.l1d.overallMshrMisses::total       7856394                       # number of overall MSHR misses (Count)
system.cpu.l1d.demandMshrMissLatency::cpu.data 281980978000                       # number of demand (read+write) MSHR miss ticks (Tick)
system.cpu.l1d.demandMshrMissLatency::total 281980978000                       # number of demand (read+write) MSHR miss ticks (Tick)
system.cpu.l1d.overallMshrMissLatency::cpu.data 281980978000                       # number of overall MSHR miss ticks (Tick)
system.cpu.l1d.overallMshrMissLatency::total 281980978000                       # number of overall MSHR miss ticks (Tick)
system.cpu.l1d.demandMshrMissRate::cpu.data     0.049756                       # mshr miss ratio for demand accesses (Ratio)
system.cpu.l1d.demandMshrMissRate::total     0.049756                       # mshr miss ratio for demand accesses (Ratio)
system.cpu.l1d.overallMshrMissRate::cpu.data     0.049756                       # mshr miss ratio for overall accesses (Ratio)
system.cpu.l1d.overallMshrMissRate::total     0.049756                       # mshr miss ratio for overall accesses (Ratio)
system.cpu.l1d.demandAvgMshrMissLatency::cpu.data 35891.908934                       # average overall mshr miss latency ((Tick/Count))
system.cpu.l1d.demandAvgMshrMissLatency::total 35891.908934                       # average overall mshr miss latency ((Tick/Count))
system.cpu.l1d.overallAvgMshrMissLatency::cpu.data 35891.908934                       # average overall mshr miss latency ((Tick/Count))
system.cpu.l1d.overallAvgMshrMissLatency::total 35891.908934                       # average overall mshr miss latency ((Tick/Count))
system.cpu.l1d.replacements                   7856504                       # number of replacements (Count)
system.cpu.l1d.LockedRMWReadReq.hits::cpu.data         1378                       # number of LockedRMWReadReq hits (Count)
system.cpu.l1d.LockedRMWReadReq.hits::total         1378                       # number of LockedRMWReadReq hits (Count)
system.cpu.l1d.LockedRMWReadReq.misses::cpu.data          174                       # number of LockedRMWReadReq misses (Count)
system.cpu.l1d.LockedRMWReadReq.misses::total          174                       # number of LockedRMWReadReq misses (Count)
system.cpu.l1d.LockedRMWReadReq.missLatency::cpu.data     12844000                       # number of LockedRMWReadReq miss ticks (Tick)
system.cpu.l1d.LockedRMWReadReq.missLatency::total     12844000                       # number of LockedRMWReadReq miss ticks (Tick)
system.cpu.l1d.LockedRMWReadReq.accesses::cpu.data         1552                       # number of LockedRMWReadReq accesses(hits+misses) (Count)
system.cpu.l1d.LockedRMWReadReq.accesses::total         1552                       # number of LockedRMWReadReq accesses(hits+misses) (Count)
system.cpu.l1d.LockedRMWReadReq.missRate::cpu.data     0.112113                       # miss rate for LockedRMWReadReq accesses (Ratio)
system.cpu.l1d.LockedRMWReadReq.missRate::total     0.112113                       # miss rate for LockedRMWReadReq accesses (Ratio)
system.cpu.l1d.LockedRMWReadReq.avgMissLatency::cpu.data 73816.091954                       # average LockedRMWReadReq miss latency ((Tick/Count))
system.cpu.l1d.LockedRMWReadReq.avgMissLatency::total 73816.091954                       # average LockedRMWReadReq miss latency ((Tick/Count))
system.cpu.l1d.LockedRMWReadReq.mshrMisses::cpu.data          174                       # number of LockedRMWReadReq MSHR misses (Count)
system.cpu.l1d.LockedRMWReadReq.mshrMisses::total          174                       # number of LockedRMWReadReq MSHR misses (Count)
system.cpu.l1d.LockedRMWReadReq.mshrMissLatency::cpu.data     26892000                       # number of LockedRMWReadReq MSHR miss ticks (Tick)
system.cpu.l1d.LockedRMWReadReq.mshrMissLatency::total     26892000                       # number of LockedRMWReadReq MSHR miss ticks (Tick)
system.cpu.l1d.LockedRMWReadReq.mshrMissRate::cpu.data     0.112113                       # mshr miss rate for LockedRMWReadReq accesses (Ratio)
system.cpu.l1d.LockedRMWReadReq.mshrMissRate::total     0.112113                       # mshr miss rate for LockedRMWReadReq accesses (Ratio)
system.cpu.l1d.LockedRMWReadReq.avgMshrMissLatency::cpu.data 154551.724138                       # average LockedRMWReadReq mshr miss latency ((Tick/Count))
system.cpu.l1d.LockedRMWReadReq.avgMshrMissLatency::total 154551.724138                       # average LockedRMWReadReq mshr miss latency ((Tick/Count))
system.cpu.l1d.LockedRMWWriteReq.hits::cpu.data         1552                       # number of LockedRMWWriteReq hits (Count)
system.cpu.l1d.LockedRMWWriteReq.hits::total         1552                       # number of LockedRMWWriteReq hits (Count)
system.cpu.l1d.LockedRMWWriteReq.accesses::cpu.data         1552                       # number of LockedRMWWriteReq accesses(hits+misses) (Count)
system.cpu.l1d.LockedRMWWriteReq.accesses::total         1552                       # number of LockedRMWWriteReq accesses(hits+misses) (Count)
system.cpu.l1d.ReadReq.hits::cpu.data        86901803                       # number of ReadReq hits (Count)
system.cpu.l1d.ReadReq.hits::total           86901803                       # number of ReadReq hits (Count)
system.cpu.l1d.ReadReq.misses::cpu.data       6548158                       # number of ReadReq misses (Count)
system.cpu.l1d.ReadReq.misses::total          6548158                       # number of ReadReq misses (Count)
system.cpu.l1d.ReadReq.missLatency::cpu.data 234298807000                       # number of ReadReq miss ticks (Tick)
system.cpu.l1d.ReadReq.missLatency::total 234298807000                       # number of ReadReq miss ticks (Tick)
system.cpu.l1d.ReadReq.accesses::cpu.data     93449961                       # number of ReadReq accesses(hits+misses) (Count)
system.cpu.l1d.ReadReq.accesses::total       93449961                       # number of ReadReq accesses(hits+misses) (Count)
system.cpu.l1d.ReadReq.missRate::cpu.data     0.070071                       # miss rate for ReadReq accesses (Ratio)
system.cpu.l1d.ReadReq.missRate::total       0.070071                       # miss rate for ReadReq accesses (Ratio)
system.cpu.l1d.ReadReq.avgMissLatency::cpu.data 35780.872575                       # average ReadReq miss latency ((Tick/Count))
system.cpu.l1d.ReadReq.avgMissLatency::total 35780.872575                       # average ReadReq miss latency ((Tick/Count))
system.cpu.l1d.ReadReq.mshrMisses::cpu.data      6548158                       # number of ReadReq MSHR misses (Count)
system.cpu.l1d.ReadReq.mshrMisses::total      6548158                       # number of ReadReq MSHR misses (Count)
system.cpu.l1d.ReadReq.mshrMissLatency::cpu.data 227750649000                       # number of ReadReq MSHR miss ticks (Tick)
system.cpu.l1d.ReadReq.mshrMissLatency::total 227750649000                       # number of ReadReq MSHR miss ticks (Tick)
system.cpu.l1d.ReadReq.mshrMissRate::cpu.data     0.070071                       # mshr miss rate for ReadReq accesses (Ratio)
system.cpu.l1d.ReadReq.mshrMissRate::total     0.070071                       # mshr miss rate for ReadReq accesses (Ratio)
system.cpu.l1d.ReadReq.avgMshrMissLatency::cpu.data 34780.872575                       # average ReadReq mshr miss latency ((Tick/Count))
system.cpu.l1d.ReadReq.avgMshrMissLatency::total 34780.872575                       # average ReadReq mshr miss latency ((Tick/Count))
system.cpu.l1d.WriteReq.hits::cpu.data       63139003                       # number of WriteReq hits (Count)
system.cpu.l1d.WriteReq.hits::total          63139003                       # number of WriteReq hits (Count)
system.cpu.l1d.WriteReq.misses::cpu.data      1308236                       # number of WriteReq misses (Count)
system.cpu.l1d.WriteReq.misses::total         1308236                       # number of WriteReq misses (Count)
system.cpu.l1d.WriteReq.missLatency::cpu.data  55538565000                       # number of WriteReq miss ticks (Tick)
system.cpu.l1d.WriteReq.missLatency::total  55538565000                       # number of WriteReq miss ticks (Tick)
system.cpu.l1d.WriteReq.accesses::cpu.data     64447239                       # number of WriteReq accesses(hits+misses) (Count)
system.cpu.l1d.WriteReq.accesses::total      64447239                       # number of WriteReq accesses(hits+misses) (Count)
system.cpu.l1d.WriteReq.missRate::cpu.data     0.020299                       # miss rate for WriteReq accesses (Ratio)
system.cpu.l1d.WriteReq.missRate::total      0.020299                       # miss rate for WriteReq accesses (Ratio)
system.cpu.l1d.WriteReq.avgMissLatency::cpu.data 42453.016887                       # average WriteReq miss latency ((Tick/Count))
system.cpu.l1d.WriteReq.avgMissLatency::total 42453.016887                       # average WriteReq miss latency ((Tick/Count))
system.cpu.l1d.WriteReq.mshrMisses::cpu.data      1308236                       # number of WriteReq MSHR misses (Count)
system.cpu.l1d.WriteReq.mshrMisses::total      1308236                       # number of WriteReq MSHR misses (Count)
system.cpu.l1d.WriteReq.mshrMissLatency::cpu.data  54230329000                       # number of WriteReq MSHR miss ticks (Tick)
system.cpu.l1d.WriteReq.mshrMissLatency::total  54230329000                       # number of WriteReq MSHR miss ticks (Tick)
system.cpu.l1d.WriteReq.mshrMissRate::cpu.data     0.020299                       # mshr miss rate for WriteReq accesses (Ratio)
system.cpu.l1d.WriteReq.mshrMissRate::total     0.020299                       # mshr miss rate for WriteReq accesses (Ratio)
system.cpu.l1d.WriteReq.avgMshrMissLatency::cpu.data 41453.016887                       # average WriteReq mshr miss latency ((Tick/Count))
system.cpu.l1d.WriteReq.avgMshrMissLatency::total 41453.016887                       # average WriteReq mshr miss latency ((Tick/Count))
system.cpu.l1d.power_state.pwrStateResidencyTicks::UNDEFINED 1018068513000                       # Cumulative time (in ticks) in various power states (Tick)
system.cpu.l1d.tags.tagsInUse               63.999733                       # Average ticks per tags in use ((Tick/Count))
system.cpu.l1d.tags.totalRefs               157705911                       # Total number of references to valid blocks. (Count)
system.cpu.l1d.tags.sampledRefs               7856504                       # Sample count of references to valid blocks. (Count)
system.cpu.l1d.tags.avgRefs                 20.073294                       # Average number of references to valid blocks. ((Count/Count))
system.cpu.l1d.tags.warmupTick                 158000                       # The tick when the warmup percentage was hit. (Tick)
system.cpu.l1d.tags.occupancies::cpu.data    63.999733                       # Average occupied blocks per tick, per requestor ((Count/Tick))
system.cpu.l1d.tags.avgOccs::cpu.data        0.999996                       # Average percentage of cache occupancy ((Ratio/Tick))
system.cpu.l1d.tags.avgOccs::total           0.999996                       # Average percentage of cache occupancy ((Ratio/Tick))
system.cpu.l1d.tags.occupanciesTaskId::1024           64                       # Occupied blocks per task id (Count)
system.cpu.l1d.tags.ageTaskId_1024::0              43                       # Occupied blocks per task id, per block age (Count)
system.cpu.l1d.tags.ageTaskId_1024::1              16                       # Occupied blocks per task id, per block age (Count)
system.cpu.l1d.tags.ageTaskId_1024::3               5                       # Occupied blocks per task id, per block age (Count)
system.cpu.l1d.tags.ratioOccsTaskId::1024            1                       # Ratio of occupied blocks and all blocks, per task id (Ratio)
system.cpu.l1d.tags.tagAccesses             323657176                       # Number of tag accesses (Count)
system.cpu.l1d.tags.dataAccesses            323657176                       # Number of data accesses (Count)
system.cpu.l1d.tags.power_state.pwrStateResidencyTicks::UNDEFINED 1018068513000                       # Cumulative time (in ticks) in various power states (Tick)
system.cpu.l1i.demandHits::cpu.inst         532456985                       # number of demand (read+write) hits (Count)
system.cpu.l1i.demandHits::total            532456985                       # number of demand (read+write) hits (Count)
system.cpu.l1i.overallHits::cpu.inst        532456985                       # number of overall hits (Count)
system.cpu.l1i.overallHits::total           532456985                       # number of overall hits (Count)
system.cpu.l1i.demandMisses::cpu.inst         3448298                       # number of demand (read+write) misses (Count)
system.cpu.l1i.demandMisses::total            3448298                       # number of demand (read+write) misses (Count)
system.cpu.l1i.overallMisses::cpu.inst        3448298                       # number of overall misses (Count)
system.cpu.l1i.overallMisses::total           3448298                       # number of overall misses (Count)
system.cpu.l1i.demandMissLatency::cpu.inst  42911587000                       # number of demand (read+write) miss ticks (Tick)
system.cpu.l1i.demandMissLatency::total   42911587000                       # number of demand (read+write) miss ticks (Tick)
system.cpu.l1i.overallMissLatency::cpu.inst  42911587000                       # number of overall miss ticks (Tick)
system.cpu.l1i.overallMissLatency::total  42911587000                       # number of overall miss ticks (Tick)
system.cpu.l1i.demandAccesses::cpu.inst     535905283                       # number of demand (read+write) accesses (Count)
system.cpu.l1i.demandAccesses::total        535905283                       # number of demand (read+write) accesses (Count)
system.cpu.l1i.overallAccesses::cpu.inst    535905283                       # number of overall (read+write) accesses (Count)
system.cpu.l1i.overallAccesses::total       535905283                       # number of overall (read+write) accesses (Count)
system.cpu.l1i.demandMissRate::cpu.inst      0.006435                       # miss rate for demand accesses (Ratio)
system.cpu.l1i.demandMissRate::total         0.006435                       # miss rate for demand accesses (Ratio)
system.cpu.l1i.overallMissRate::cpu.inst     0.006435                       # miss rate for overall accesses (Ratio)
system.cpu.l1i.overallMissRate::total        0.006435                       # miss rate for overall accesses (Ratio)
system.cpu.l1i.demandAvgMissLatency::cpu.inst 12444.280338                       # average overall miss latency in ticks ((Tick/Count))
system.cpu.l1i.demandAvgMissLatency::total 12444.280338                       # average overall miss latency in ticks ((Tick/Count))
system.cpu.l1i.overallAvgMissLatency::cpu.inst 12444.280338                       # average overall miss latency ((Tick/Count))
system.cpu.l1i.overallAvgMissLatency::total 12444.280338                       # average overall miss latency ((Tick/Count))
system.cpu.l1i.blockedCycles::no_mshrs              0                       # number of cycles access was blocked (Cycle)
system.cpu.l1i.blockedCycles::no_targets            0                       # number of cycles access was blocked (Cycle)
system.cpu.l1i.blockedCauses::no_mshrs              0                       # number of times access was blocked (Count)
system.cpu.l1i.blockedCauses::no_targets            0                       # number of times access was blocked (Count)
system.cpu.l1i.avgBlocked::no_mshrs               nan                       # average number of cycles each access was blocked ((Cycle/Count))
system.cpu.l1i.avgBlocked::no_targets             nan                       # average number of cycles each access was blocked ((Cycle/Count))
system.cpu.l1i.demandMshrMisses::cpu.inst      3448298                       # number of demand (read+write) MSHR misses (Count)
system.cpu.l1i.demandMshrMisses::total        3448298                       # number of demand (read+write) MSHR misses (Count)
system.cpu.l1i.overallMshrMisses::cpu.inst      3448298                       # number of overall MSHR misses (Count)
system.cpu.l1i.overallMshrMisses::total       3448298                       # number of overall MSHR misses (Count)
system.cpu.l1i.demandMshrMissLatency::cpu.inst  39463289000                       # number of demand (read+write) MSHR miss ticks (Tick)
system.cpu.l1i.demandMshrMissLatency::total  39463289000                       # number of demand (read+write) MSHR miss ticks (Tick)
system.cpu.l1i.overallMshrMissLatency::cpu.inst  39463289000                       # number of overall MSHR miss ticks (Tick)
system.cpu.l1i.overallMshrMissLatency::total  39463289000                       # number of overall MSHR miss ticks (Tick)
system.cpu.l1i.demandMshrMissRate::cpu.inst     0.006435                       # mshr miss ratio for demand accesses (Ratio)
system.cpu.l1i.demandMshrMissRate::total     0.006435                       # mshr miss ratio for demand accesses (Ratio)
system.cpu.l1i.overallMshrMissRate::cpu.inst     0.006435                       # mshr miss ratio for overall accesses (Ratio)
system.cpu.l1i.overallMshrMissRate::total     0.006435                       # mshr miss ratio for overall accesses (Ratio)
system.cpu.l1i.demandAvgMshrMissLatency::cpu.inst 11444.280338                       # average overall mshr miss latency ((Tick/Count))
system.cpu.l1i.demandAvgMshrMissLatency::total 11444.280338                       # average overall mshr miss latency ((Tick/Count))
system.cpu.l1i.overallAvgMshrMissLatency::cpu.inst 11444.280338                       # average overall mshr miss latency ((Tick/Count))
system.cpu.l1i.overallAvgMshrMissLatency::total 11444.280338                       # average overall mshr miss latency ((Tick/Count))
system.cpu.l1i.replacements                   3448234                       # number of replacements (Count)
system.cpu.l1i.ReadReq.hits::cpu.inst       532456985                       # number of ReadReq hits (Count)
system.cpu.l1i.ReadReq.hits::total          532456985                       # number of ReadReq hits (Count)
system.cpu.l1i.ReadReq.misses::cpu.inst       3448298                       # number of ReadReq misses (Count)
system.cpu.l1i.ReadReq.misses::total          3448298                       # number of ReadReq misses (Count)
system.cpu.l1i.ReadReq.missLatency::cpu.inst  42911587000                       # number of ReadReq miss ticks (Tick)
system.cpu.l1i.ReadReq.missLatency::total  42911587000                       # number of ReadReq miss ticks (Tick)
system.cpu.l1i.ReadReq.accesses::cpu.inst    535905283                       # number of ReadReq accesses(hits+misses) (Count)
system.cpu.l1i.ReadReq.accesses::total      535905283                       # number of ReadReq accesses(hits+misses) (Count)
system.cpu.l1i.ReadReq.missRate::cpu.inst     0.006435                       # miss rate for ReadReq accesses (Ratio)
system.cpu.l1i.ReadReq.missRate::total       0.006435                       # miss rate for ReadReq accesses (Ratio)
system.cpu.l1i.ReadReq.avgMissLatency::cpu.inst 12444.280338                       # average ReadReq miss latency ((Tick/Count))
system.cpu.l1i.ReadReq.avgMissLatency::total 12444.280338                       # average ReadReq miss latency ((Tick/Count))
system.cpu.l1i.ReadReq.mshrMisses::cpu.inst      3448298                       # number of ReadReq MSHR misses (Count)
system.cpu.l1i.ReadReq.mshrMisses::total      3448298                       # number of ReadReq MSHR misses (Count)
system.cpu.l1i.ReadReq.mshrMissLatency::cpu.inst  39463289000                       # number of ReadReq MSHR miss ticks (Tick)
system.cpu.l1i.ReadReq.mshrMissLatency::total  39463289000                       # number of ReadReq MSHR miss ticks (Tick)
system.cpu.l1i.ReadReq.mshrMissRate::cpu.inst     0.006435                       # mshr miss rate for ReadReq accesses (Ratio)
system.cpu.l1i.ReadReq.mshrMissRate::total     0.006435                       # mshr miss rate for ReadReq accesses (Ratio)
system.cpu.l1i.ReadReq.avgMshrMissLatency::cpu.inst 11444.280338                       # average ReadReq mshr miss latency ((Tick/Count))
system.cpu.l1i.ReadReq.avgMshrMissLatency::total 11444.280338                       # average ReadReq mshr miss latency ((Tick/Count))
system.cpu.l1i.power_state.pwrStateResidencyTicks::UNDEFINED 1018068513000                       # Cumulative time (in ticks) in various power states (Tick)
system.cpu.l1i.tags.tagsInUse               63.999255                       # Average ticks per tags in use ((Tick/Count))
system.cpu.l1i.tags.totalRefs               473573193                       # Total number of references to valid blocks. (Count)
system.cpu.l1i.tags.sampledRefs               3448234                       # Sample count of references to valid blocks. (Count)
system.cpu.l1i.tags.avgRefs                137.337893                       # Average number of references to valid blocks. ((Count/Count))
system.cpu.l1i.tags.warmupTick                  79000                       # The tick when the warmup percentage was hit. (Tick)
system.cpu.l1i.tags.occupancies::cpu.inst    63.999255                       # Average occupied blocks per tick, per requestor ((Count/Tick))
system.cpu.l1i.tags.avgOccs::cpu.inst        0.999988                       # Average percentage of cache occupancy ((Ratio/Tick))
system.cpu.l1i.tags.avgOccs::total           0.999988                       # Average percentage of cache occupancy ((Ratio/Tick))
system.cpu.l1i.tags.occupanciesTaskId::1024           64                       # Occupied blocks per task id (Count)
system.cpu.l1i.tags.ageTaskId_1024::0              22                       # Occupied blocks per task id, per block age (Count)
system.cpu.l1i.tags.ageTaskId_1024::3              32                       # Occupied blocks per task id, per block age (Count)
system.cpu.l1i.tags.ageTaskId_1024::4              10                       # Occupied blocks per task id, per block age (Count)
system.cpu.l1i.tags.ratioOccsTaskId::1024            1                       # Ratio of occupied blocks and all blocks, per task id (Ratio)
system.cpu.l1i.tags.tagAccesses            1075258864                       # Number of tag accesses (Count)
system.cpu.l1i.tags.dataAccesses           1075258864                       # Number of data accesses (Count)
system.cpu.l1i.tags.power_state.pwrStateResidencyTicks::UNDEFINED 1018068513000                       # Cumulative time (in ticks) in various power states (Tick)
system.cpu.mmu.dtb.rdAccesses                93451775                       # TLB accesses on read requests (Count)
system.cpu.mmu.dtb.wrAccesses                64449025                       # TLB accesses on write requests (Count)
system.cpu.mmu.dtb.rdMisses                     73804                       # TLB misses on read requests (Count)
system.cpu.mmu.dtb.wrMisses                     10203                       # TLB misses on write requests (Count)
system.cpu.mmu.dtb.walker.power_state.pwrStateResidencyTicks::UNDEFINED 1018068513000                       # Cumulative time (in ticks) in various power states (Tick)
system.cpu.mmu.itb.rdAccesses                       0                       # TLB accesses on read requests (Count)
system.cpu.mmu.itb.wrAccesses               535905397                       # TLB accesses on write requests (Count)
system.cpu.mmu.itb.rdMisses                         0                       # TLB misses on read requests (Count)
system.cpu.mmu.itb.wrMisses                       475                       # TLB misses on write requests (Count)
system.cpu.mmu.itb.walker.power_state.pwrStateResidencyTicks::UNDEFINED 1018068513000                       # Cumulative time (in ticks) in various power states (Tick)
system.cpu.power_state.pwrStateResidencyTicks::ON 1018068513000                       # Cumulative time (in ticks) in various power states (Tick)
system.cpu.thread_0.numInsts                        0                       # Number of Instructions committed (Count)
system.cpu.thread_0.numOps                          0                       # Number of Ops committed (Count)
system.cpu.thread_0.numMemRefs                      0                       # Number of Memory References (Count)
system.cpu.workload.numSyscalls                   205                       # Number of system calls (Count)
system.l2_bus.transDist::ReadResp             9996456                       # Transaction distribution (Count)
system.l2_bus.transDist::WritebackDirty       6145697                       # Transaction distribution (Count)
system.l2_bus.transDist::CleanEvict           8330917                       # Transaction distribution (Count)
system.l2_bus.transDist::ReadExReq            1308410                       # Transaction distribution (Count)
system.l2_bus.transDist::ReadExResp           1308410                       # Transaction distribution (Count)
system.l2_bus.transDist::ReadSharedReq        9996456                       # Transaction distribution (Count)
system.l2_bus.pktCount_system.cpu.l1d.mem_side_port::system.l2_cache.cpu_side_port     23569640                       # Packet count per connected requestor and responder (Count)
system.l2_bus.pktCount_system.cpu.l1i.mem_side_port::system.l2_cache.cpu_side_port     10344830                       # Packet count per connected requestor and responder (Count)
system.l2_bus.pktCount::total                33914470                       # Packet count per connected requestor and responder (Count)
system.l2_bus.pktSize_system.cpu.l1d.mem_side_port::system.l2_cache.cpu_side_port    773383168                       # Cumulative packet size per connected requestor and responder (Byte)
system.l2_bus.pktSize_system.cpu.l1i.mem_side_port::system.l2_cache.cpu_side_port    220691072                       # Cumulative packet size per connected requestor and responder (Byte)
system.l2_bus.pktSize::total                994074240                       # Cumulative packet size per connected requestor and responder (Byte)
system.l2_bus.snoops                          3171876                       # Total snoops (Count)
system.l2_bus.snoopTraffic                  122761792                       # Total snoop traffic (Byte)
system.l2_bus.snoopFanout::samples           14476742                       # Request fanout histogram (Count)
system.l2_bus.snoopFanout::mean              0.002129                       # Request fanout histogram (Count)
system.l2_bus.snoopFanout::stdev             0.046087                       # Request fanout histogram (Count)
system.l2_bus.snoopFanout::underflows               0      0.00%      0.00% # Request fanout histogram (Count)
system.l2_bus.snoopFanout::0                 14445928     99.79%     99.79% # Request fanout histogram (Count)
system.l2_bus.snoopFanout::1                    30814      0.21%    100.00% # Request fanout histogram (Count)
system.l2_bus.snoopFanout::2                        0      0.00%    100.00% # Request fanout histogram (Count)
system.l2_bus.snoopFanout::overflows                0      0.00%    100.00% # Request fanout histogram (Count)
system.l2_bus.snoopFanout::min_value                0                       # Request fanout histogram (Count)
system.l2_bus.snoopFanout::max_value                1                       # Request fanout histogram (Count)
system.l2_bus.snoopFanout::total             14476742                       # Request fanout histogram (Count)
system.l2_bus.power_state.pwrStateResidencyTicks::UNDEFINED 1018068513000                       # Cumulative time (in ticks) in various power states (Tick)
system.l2_bus.reqLayer0.occupancy         31064692000                       # Layer occupancy (ticks) (Tick)
system.l2_bus.reqLayer0.utilization               0.0                       # Layer utilization (Ratio)
system.l2_bus.respLayer0.occupancy        23569704000                       # Layer occupancy (ticks) (Tick)
system.l2_bus.respLayer0.utilization              0.0                       # Layer utilization (Ratio)
system.l2_bus.respLayer1.occupancy        10344894000                       # Layer occupancy (ticks) (Tick)
system.l2_bus.respLayer1.utilization              0.0                       # Layer utilization (Ratio)
system.l2_bus.snoop_filter.totRequests       22609604                       # Total number of requests made to the snoop filter. (Count)
system.l2_bus.snoop_filter.hitSingleRequests     11304738                       # Number of requests hitting in the snoop filter with a single holder of the requested data. (Count)
system.l2_bus.snoop_filter.hitMultiRequests            0                       # Number of requests hitting in the snoop filter with multiple (>1) holders of the requested data. (Count)
system.l2_bus.snoop_filter.totSnoops            30814                       # Total number of snoops made to the snoop filter. (Count)
system.l2_bus.snoop_filter.hitSingleSnoops        30814                       # Number of snoops hitting in the snoop filter with a single holder of the requested data. (Count)
system.l2_bus.snoop_filter.hitMultiSnoops            0                       # Number of snoops hitting in the snoop filter with multiple (>1) holders of the requested data. (Count)
system.l2_cache.demandHits::cpu.inst          3424689                       # number of demand (read+write) hits (Count)
system.l2_cache.demandHits::cpu.data          4714062                       # number of demand (read+write) hits (Count)
system.l2_cache.demandHits::total             8138751                       # number of demand (read+write) hits (Count)
system.l2_cache.overallHits::cpu.inst         3424689                       # number of overall hits (Count)
system.l2_cache.overallHits::cpu.data         4714062                       # number of overall hits (Count)
system.l2_cache.overallHits::total            8138751                       # number of overall hits (Count)
system.l2_cache.demandMisses::cpu.inst          23609                       # number of demand (read+write) misses (Count)
system.l2_cache.demandMisses::cpu.data        3142506                       # number of demand (read+write) misses (Count)
system.l2_cache.demandMisses::total           3166115                       # number of demand (read+write) misses (Count)
system.l2_cache.overallMisses::cpu.inst         23609                       # number of overall misses (Count)
system.l2_cache.overallMisses::cpu.data       3142506                       # number of overall misses (Count)
system.l2_cache.overallMisses::total          3166115                       # number of overall misses (Count)
system.l2_cache.demandMissLatency::cpu.inst   1716371000                       # number of demand (read+write) miss ticks (Tick)
system.l2_cache.demandMissLatency::cpu.data 223575529000                       # number of demand (read+write) miss ticks (Tick)
system.l2_cache.demandMissLatency::total 225291900000                       # number of demand (read+write) miss ticks (Tick)
system.l2_cache.overallMissLatency::cpu.inst   1716371000                       # number of overall miss ticks (Tick)
system.l2_cache.overallMissLatency::cpu.data 223575529000                       # number of overall miss ticks (Tick)
system.l2_cache.overallMissLatency::total 225291900000                       # number of overall miss ticks (Tick)
system.l2_cache.demandAccesses::cpu.inst      3448298                       # number of demand (read+write) accesses (Count)
system.l2_cache.demandAccesses::cpu.data      7856568                       # number of demand (read+write) accesses (Count)
system.l2_cache.demandAccesses::total        11304866                       # number of demand (read+write) accesses (Count)
system.l2_cache.overallAccesses::cpu.inst      3448298                       # number of overall (read+write) accesses (Count)
system.l2_cache.overallAccesses::cpu.data      7856568                       # number of overall (read+write) accesses (Count)
system.l2_cache.overallAccesses::total       11304866                       # number of overall (read+write) accesses (Count)
system.l2_cache.demandMissRate::cpu.inst     0.006847                       # miss rate for demand accesses (Ratio)
system.l2_cache.demandMissRate::cpu.data     0.399985                       # miss rate for demand accesses (Ratio)
system.l2_cache.demandMissRate::total        0.280067                       # miss rate for demand accesses (Ratio)
system.l2_cache.overallMissRate::cpu.inst     0.006847                       # miss rate for overall accesses (Ratio)
system.l2_cache.overallMissRate::cpu.data     0.399985                       # miss rate for overall accesses (Ratio)
system.l2_cache.overallMissRate::total       0.280067                       # miss rate for overall accesses (Ratio)
system.l2_cache.demandAvgMissLatency::cpu.inst 72699.860223                       # average overall miss latency in ticks ((Tick/Count))
system.l2_cache.demandAvgMissLatency::cpu.data 71145.617224                       # average overall miss latency in ticks ((Tick/Count))
system.l2_cache.demandAvgMissLatency::total 71157.206861                       # average overall miss latency in ticks ((Tick/Count))
system.l2_cache.overallAvgMissLatency::cpu.inst 72699.860223                       # average overall miss latency ((Tick/Count))
system.l2_cache.overallAvgMissLatency::cpu.data 71145.617224                       # average overall miss latency ((Tick/Count))
system.l2_cache.overallAvgMissLatency::total 71157.206861                       # average overall miss latency ((Tick/Count))
system.l2_cache.blockedCycles::no_mshrs             0                       # number of cycles access was blocked (Cycle)
system.l2_cache.blockedCycles::no_targets            0                       # number of cycles access was blocked (Cycle)
system.l2_cache.blockedCauses::no_mshrs             0                       # number of times access was blocked (Count)
system.l2_cache.blockedCauses::no_targets            0                       # number of times access was blocked (Count)
system.l2_cache.avgBlocked::no_mshrs              nan                       # average number of cycles each access was blocked ((Cycle/Count))
system.l2_cache.avgBlocked::no_targets            nan                       # average number of cycles each access was blocked ((Cycle/Count))
system.l2_cache.writebacks::writebacks        1918153                       # number of writebacks (Count)
system.l2_cache.writebacks::total             1918153                       # number of writebacks (Count)
system.l2_cache.demandMshrMisses::cpu.inst        23609                       # number of demand (read+write) MSHR misses (Count)
system.l2_cache.demandMshrMisses::cpu.data      3142506                       # number of demand (read+write) MSHR misses (Count)
system.l2_cache.demandMshrMisses::total       3166115                       # number of demand (read+write) MSHR misses (Count)
system.l2_cache.overallMshrMisses::cpu.inst        23609                       # number of overall MSHR misses (Count)
system.l2_cache.overallMshrMisses::cpu.data      3142506                       # number of overall MSHR misses (Count)
system.l2_cache.overallMshrMisses::total      3166115                       # number of overall MSHR misses (Count)
system.l2_cache.demandMshrMissLatency::cpu.inst   1692762000                       # number of demand (read+write) MSHR miss ticks (Tick)
system.l2_cache.demandMshrMissLatency::cpu.data 220433023000                       # number of demand (read+write) MSHR miss ticks (Tick)
system.l2_cache.demandMshrMissLatency::total 222125785000                       # number of demand (read+write) MSHR miss ticks (Tick)
system.l2_cache.overallMshrMissLatency::cpu.inst   1692762000                       # number of overall MSHR miss ticks (Tick)
system.l2_cache.overallMshrMissLatency::cpu.data 220433023000                       # number of overall MSHR miss ticks (Tick)
system.l2_cache.overallMshrMissLatency::total 222125785000                       # number of overall MSHR miss ticks (Tick)
system.l2_cache.demandMshrMissRate::cpu.inst     0.006847                       # mshr miss ratio for demand accesses (Ratio)
system.l2_cache.demandMshrMissRate::cpu.data     0.399985                       # mshr miss ratio for demand accesses (Ratio)
system.l2_cache.demandMshrMissRate::total     0.280067                       # mshr miss ratio for demand accesses (Ratio)
system.l2_cache.overallMshrMissRate::cpu.inst     0.006847                       # mshr miss ratio for overall accesses (Ratio)
system.l2_cache.overallMshrMissRate::cpu.data     0.399985                       # mshr miss ratio for overall accesses (Ratio)
system.l2_cache.overallMshrMissRate::total     0.280067                       # mshr miss ratio for overall accesses (Ratio)
system.l2_cache.demandAvgMshrMissLatency::cpu.inst 71699.860223                       # average overall mshr miss latency ((Tick/Count))
system.l2_cache.demandAvgMshrMissLatency::cpu.data 70145.617224                       # average overall mshr miss latency ((Tick/Count))
system.l2_cache.demandAvgMshrMissLatency::total 70157.206861                       # average overall mshr miss latency ((Tick/Count))
system.l2_cache.overallAvgMshrMissLatency::cpu.inst 71699.860223                       # average overall mshr miss latency ((Tick/Count))
system.l2_cache.overallAvgMshrMissLatency::cpu.data 70145.617224                       # average overall mshr miss latency ((Tick/Count))
system.l2_cache.overallAvgMshrMissLatency::total 70157.206861                       # average overall mshr miss latency ((Tick/Count))
system.l2_cache.replacements                  3171876                       # number of replacements (Count)
system.l2_cache.CleanEvict.mshrMisses::writebacks        24494                       # number of CleanEvict MSHR misses (Count)
system.l2_cache.CleanEvict.mshrMisses::total        24494                       # number of CleanEvict MSHR misses (Count)
system.l2_cache.CleanEvict.mshrMissRate::writebacks          inf                       # mshr miss rate for CleanEvict accesses (Ratio)
system.l2_cache.CleanEvict.mshrMissRate::total          inf                       # mshr miss rate for CleanEvict accesses (Ratio)
system.l2_cache.ReadExReq.hits::cpu.data       650910                       # number of ReadExReq hits (Count)
system.l2_cache.ReadExReq.hits::total          650910                       # number of ReadExReq hits (Count)
system.l2_cache.ReadExReq.misses::cpu.data       657500                       # number of ReadExReq misses (Count)
system.l2_cache.ReadExReq.misses::total        657500                       # number of ReadExReq misses (Count)
system.l2_cache.ReadExReq.missLatency::cpu.data  45739599000                       # number of ReadExReq miss ticks (Tick)
system.l2_cache.ReadExReq.missLatency::total  45739599000                       # number of ReadExReq miss ticks (Tick)
system.l2_cache.ReadExReq.accesses::cpu.data      1308410                       # number of ReadExReq accesses(hits+misses) (Count)
system.l2_cache.ReadExReq.accesses::total      1308410                       # number of ReadExReq accesses(hits+misses) (Count)
system.l2_cache.ReadExReq.missRate::cpu.data     0.502518                       # miss rate for ReadExReq accesses (Ratio)
system.l2_cache.ReadExReq.missRate::total     0.502518                       # miss rate for ReadExReq accesses (Ratio)
system.l2_cache.ReadExReq.avgMissLatency::cpu.data 69565.930038                       # average ReadExReq miss latency ((Tick/Count))
system.l2_cache.ReadExReq.avgMissLatency::total 69565.930038                       # average ReadExReq miss latency ((Tick/Count))
system.l2_cache.ReadExReq.mshrMisses::cpu.data       657500                       # number of ReadExReq MSHR misses (Count)
system.l2_cache.ReadExReq.mshrMisses::total       657500                       # number of ReadExReq MSHR misses (Count)
system.l2_cache.ReadExReq.mshrMissLatency::cpu.data  45082099000                       # number of ReadExReq MSHR miss ticks (Tick)
system.l2_cache.ReadExReq.mshrMissLatency::total  45082099000                       # number of ReadExReq MSHR miss ticks (Tick)
system.l2_cache.ReadExReq.mshrMissRate::cpu.data     0.502518                       # mshr miss rate for ReadExReq accesses (Ratio)
system.l2_cache.ReadExReq.mshrMissRate::total     0.502518                       # mshr miss rate for ReadExReq accesses (Ratio)
system.l2_cache.ReadExReq.avgMshrMissLatency::cpu.data 68565.930038                       # average ReadExReq mshr miss latency ((Tick/Count))
system.l2_cache.ReadExReq.avgMshrMissLatency::total 68565.930038                       # average ReadExReq mshr miss latency ((Tick/Count))
system.l2_cache.ReadSharedReq.hits::cpu.inst      3424689                       # number of ReadSharedReq hits (Count)
system.l2_cache.ReadSharedReq.hits::cpu.data      4063152                       # number of ReadSharedReq hits (Count)
system.l2_cache.ReadSharedReq.hits::total      7487841                       # number of ReadSharedReq hits (Count)
system.l2_cache.ReadSharedReq.misses::cpu.inst        23609                       # number of ReadSharedReq misses (Count)
system.l2_cache.ReadSharedReq.misses::cpu.data      2485006                       # number of ReadSharedReq misses (Count)
system.l2_cache.ReadSharedReq.misses::total      2508615                       # number of ReadSharedReq misses (Count)
system.l2_cache.ReadSharedReq.missLatency::cpu.inst   1716371000                       # number of ReadSharedReq miss ticks (Tick)
system.l2_cache.ReadSharedReq.missLatency::cpu.data 177835930000                       # number of ReadSharedReq miss ticks (Tick)
system.l2_cache.ReadSharedReq.missLatency::total 179552301000                       # number of ReadSharedReq miss ticks (Tick)
system.l2_cache.ReadSharedReq.accesses::cpu.inst      3448298                       # number of ReadSharedReq accesses(hits+misses) (Count)
system.l2_cache.ReadSharedReq.accesses::cpu.data      6548158                       # number of ReadSharedReq accesses(hits+misses) (Count)
system.l2_cache.ReadSharedReq.accesses::total      9996456                       # number of ReadSharedReq accesses(hits+misses) (Count)
system.l2_cache.ReadSharedReq.missRate::cpu.inst     0.006847                       # miss rate for ReadSharedReq accesses (Ratio)
system.l2_cache.ReadSharedReq.missRate::cpu.data     0.379497                       # miss rate for ReadSharedReq accesses (Ratio)
system.l2_cache.ReadSharedReq.missRate::total     0.250950                       # miss rate for ReadSharedReq accesses (Ratio)
system.l2_cache.ReadSharedReq.avgMissLatency::cpu.inst 72699.860223                       # average ReadSharedReq miss latency ((Tick/Count))
system.l2_cache.ReadSharedReq.avgMissLatency::cpu.data 71563.581738                       # average ReadSharedReq miss latency ((Tick/Count))
system.l2_cache.ReadSharedReq.avgMissLatency::total 71574.275447                       # average ReadSharedReq miss latency ((Tick/Count))
system.l2_cache.ReadSharedReq.mshrMisses::cpu.inst        23609                       # number of ReadSharedReq MSHR misses (Count)
system.l2_cache.ReadSharedReq.mshrMisses::cpu.data      2485006                       # number of ReadSharedReq MSHR misses (Count)
system.l2_cache.ReadSharedReq.mshrMisses::total      2508615                       # number of ReadSharedReq MSHR misses (Count)
system.l2_cache.ReadSharedReq.mshrMissLatency::cpu.inst   1692762000                       # number of ReadSharedReq MSHR miss ticks (Tick)
system.l2_cache.ReadSharedReq.mshrMissLatency::cpu.data 175350924000                       # number of ReadSharedReq MSHR miss ticks (Tick)
system.l2_cache.ReadSharedReq.mshrMissLatency::total 177043686000                       # number of ReadSharedReq MSHR miss ticks (Tick)
system.l2_cache.ReadSharedReq.mshrMissRate::cpu.inst     0.006847                       # mshr miss rate for ReadSharedReq accesses (Ratio)
system.l2_cache.ReadSharedReq.mshrMissRate::cpu.data     0.379497                       # mshr miss rate for ReadSharedReq accesses (Ratio)
system.l2_cache.ReadSharedReq.mshrMissRate::total     0.250950                       # mshr miss rate for ReadSharedReq accesses (Ratio)
system.l2_cache.ReadSharedReq.avgMshrMissLatency::cpu.inst 71699.860223                       # average ReadSharedReq mshr miss latency ((Tick/Count))
system.l2_cache.ReadSharedReq.avgMshrMissLatency::cpu.data 70563.581738                       # average ReadSharedReq mshr miss latency ((Tick/Count))
system.l2_cache.ReadSharedReq.avgMshrMissLatency::total 70574.275447                       # average ReadSharedReq mshr miss latency ((Tick/Count))
system.l2_cache.WritebackDirty.hits::writebacks      4227544                       # number of WritebackDirty hits (Count)
system.l2_cache.WritebackDirty.hits::total      4227544                       # number of WritebackDirty hits (Count)
system.l2_cache.WritebackDirty.accesses::writebacks      4227544                       # number of WritebackDirty accesses(hits+misses) (Count)
system.l2_cache.WritebackDirty.accesses::total      4227544                       # number of WritebackDirty accesses(hits+misses) (Count)
system.l2_cache.power_state.pwrStateResidencyTicks::UNDEFINED 1018068513000                       # Cumulative time (in ticks) in various power states (Tick)
system.l2_cache.tags.tagsInUse             511.987739                       # Average ticks per tags in use ((Tick/Count))
system.l2_cache.tags.totalRefs               22584165                       # Total number of references to valid blocks. (Count)
system.l2_cache.tags.sampledRefs              3171876                       # Sample count of references to valid blocks. (Count)
system.l2_cache.tags.avgRefs                 7.120129                       # Average number of references to valid blocks. ((Count/Count))
system.l2_cache.tags.warmupTick                 77000                       # The tick when the warmup percentage was hit. (Tick)
system.l2_cache.tags.occupancies::writebacks     2.250115                       # Average occupied blocks per tick, per requestor ((Count/Tick))
system.l2_cache.tags.occupancies::cpu.inst     5.676480                       # Average occupied blocks per tick, per requestor ((Count/Tick))
system.l2_cache.tags.occupancies::cpu.data   504.061144                       # Average occupied blocks per tick, per requestor ((Count/Tick))
system.l2_cache.tags.avgOccs::writebacks     0.004395                       # Average percentage of cache occupancy ((Ratio/Tick))
system.l2_cache.tags.avgOccs::cpu.inst       0.011087                       # Average percentage of cache occupancy ((Ratio/Tick))
system.l2_cache.tags.avgOccs::cpu.data       0.984494                       # Average percentage of cache occupancy ((Ratio/Tick))
system.l2_cache.tags.avgOccs::total          0.999976                       # Average percentage of cache occupancy ((Ratio/Tick))
system.l2_cache.tags.occupanciesTaskId::1024          512                       # Occupied blocks per task id (Count)
system.l2_cache.tags.ageTaskId_1024::0             72                       # Occupied blocks per task id, per block age (Count)
system.l2_cache.tags.ageTaskId_1024::1            230                       # Occupied blocks per task id, per block age (Count)
system.l2_cache.tags.ageTaskId_1024::2            210                       # Occupied blocks per task id, per block age (Count)
system.l2_cache.tags.ratioOccsTaskId::1024            1                       # Ratio of occupied blocks and all blocks, per task id (Ratio)
system.l2_cache.tags.tagAccesses            184049220                       # Number of tag accesses (Count)
system.l2_cache.tags.dataAccesses           184049220                       # Number of data accesses (Count)
system.l2_cache.tags.power_state.pwrStateResidencyTicks::UNDEFINED 1018068513000                       # Cumulative time (in ticks) in various power states (Tick)
system.mem_ctrl.avgPriority_writebacks::samples   1918140.00                       # Average QoS priority value for accepted requests (Count)
system.mem_ctrl.avgPriority_cpu.inst::samples     23609.00                       # Average QoS priority value for accepted requests (Count)
system.mem_ctrl.avgPriority_cpu.data::samples   3125976.00                       # Average QoS priority value for accepted requests (Count)
system.mem_ctrl.priorityMinLatency       0.000000018750                       # per QoS priority minimum request to response latency (Second)
system.mem_ctrl.priorityMaxLatency       0.002366088500                       # per QoS priority maximum request to response latency (Second)
system.mem_ctrl.numReadWriteTurnArounds        110964                       # Number of turnarounds from READ to WRITE (Count)
system.mem_ctrl.numWriteReadTurnArounds        110964                       # Number of turnarounds from WRITE to READ (Count)
system.mem_ctrl.numStayReadState              8434684                       # Number of times bus staying in READ state (Count)
system.mem_ctrl.numStayWriteState             1808937                       # Number of times bus staying in WRITE state (Count)
system.mem_ctrl.readReqs                      3166115                       # Number of read requests accepted (Count)
system.mem_ctrl.writeReqs                     1918152                       # Number of write requests accepted (Count)
system.mem_ctrl.readBursts                    3166115                       # Number of controller read bursts, including those serviced by the write queue (Count)
system.mem_ctrl.writeBursts                   1918152                       # Number of controller write bursts, including those merged in the write queue (Count)
system.mem_ctrl.servicedByWrQ                   16530                       # Number of controller read bursts serviced by the write queue (Count)
system.mem_ctrl.mergedWrBursts                     12                       # Number of controller write bursts merged with an existing one (Count)
system.mem_ctrl.neitherReadNorWriteReqs             0                       # Number of requests that are neither read nor write (Count)
system.mem_ctrl.avgRdQLen                        1.00                       # Average read queue length when enqueuing ((Count/Tick))
system.mem_ctrl.avgWrQLen                       24.79                       # Average write queue length when enqueuing ((Count/Tick))
system.mem_ctrl.numRdRetry                          0                       # Number of times read queue was full causing retry (Count)
system.mem_ctrl.numWrRetry                          0                       # Number of times write queue was full causing retry (Count)
system.mem_ctrl.readPktSize::0                      0                       # Read request sizes (log2) (Count)
system.mem_ctrl.readPktSize::1                      0                       # Read request sizes (log2) (Count)
system.mem_ctrl.readPktSize::2                      0                       # Read request sizes (log2) (Count)
system.mem_ctrl.readPktSize::3                      0                       # Read request sizes (log2) (Count)
system.mem_ctrl.readPktSize::4                      0                       # Read request sizes (log2) (Count)
system.mem_ctrl.readPktSize::5                      0                       # Read request sizes (log2) (Count)
system.mem_ctrl.readPktSize::6                3166115                       # Read request sizes (log2) (Count)
system.mem_ctrl.writePktSize::0                     0                       # Write request sizes (log2) (Count)
system.mem_ctrl.writePktSize::1                     0                       # Write request sizes (log2) (Count)
system.mem_ctrl.writePktSize::2                     0                       # Write request sizes (log2) (Count)
system.mem_ctrl.writePktSize::3                     0                       # Write request sizes (log2) (Count)
system.mem_ctrl.writePktSize::4                     0                       # Write request sizes (log2) (Count)
system.mem_ctrl.writePktSize::5                     0                       # Write request sizes (log2) (Count)
system.mem_ctrl.writePktSize::6               1918152                       # Write request sizes (log2) (Count)
system.mem_ctrl.rdQLenPdf::0                  3149580                       # What read queue length does an incoming req see (Count)
system.mem_ctrl.rdQLenPdf::1                        5                       # What read queue length does an incoming req see (Count)
system.mem_ctrl.rdQLenPdf::2                        0                       # What read queue length does an incoming req see (Count)
system.mem_ctrl.rdQLenPdf::3                        0                       # What read queue length does an incoming req see (Count)
system.mem_ctrl.rdQLenPdf::4                        0                       # What read queue length does an incoming req see (Count)
system.mem_ctrl.rdQLenPdf::5                        0                       # What read queue length does an incoming req see (Count)
system.mem_ctrl.rdQLenPdf::6                        0                       # What read queue length does an incoming req see (Count)
system.mem_ctrl.rdQLenPdf::7                        0                       # What read queue length does an incoming req see (Count)
system.mem_ctrl.rdQLenPdf::8                        0                       # What read queue length does an incoming req see (Count)
system.mem_ctrl.rdQLenPdf::9                        0                       # What read queue length does an incoming req see (Count)
system.mem_ctrl.rdQLenPdf::10                       0                       # What read queue length does an incoming req see (Count)
system.mem_ctrl.rdQLenPdf::11                       0                       # What read queue length does an incoming req see (Count)
system.mem_ctrl.rdQLenPdf::12                       0                       # What read queue length does an incoming req see (Count)
system.mem_ctrl.rdQLenPdf::13                       0                       # What read queue length does an incoming req see (Count)
system.mem_ctrl.rdQLenPdf::14                       0                       # What read queue length does an incoming req see (Count)
system.mem_ctrl.rdQLenPdf::15                       0                       # What read queue length does an incoming req see (Count)
system.mem_ctrl.rdQLenPdf::16                       0                       # What read queue length does an incoming req see (Count)
system.mem_ctrl.rdQLenPdf::17                       0                       # What read queue length does an incoming req see (Count)
system.mem_ctrl.rdQLenPdf::18                       0                       # What read queue length does an incoming req see (Count)
system.mem_ctrl.rdQLenPdf::19                       0                       # What read queue length does an incoming req see (Count)
system.mem_ctrl.rdQLenPdf::20                       0                       # What read queue length does an incoming req see (Count)
system.mem_ctrl.rdQLenPdf::21                       0                       # What read queue length does an incoming req see (Count)
system.mem_ctrl.rdQLenPdf::22                       0                       # What read queue length does an incoming req see (Count)
system.mem_ctrl.rdQLenPdf::23                       0                       # What read queue length does an incoming req see (Count)
system.mem_ctrl.rdQLenPdf::24                       0                       # What read queue length does an incoming req see (Count)
system.mem_ctrl.rdQLenPdf::25                       0                       # What read queue length does an incoming req see (Count)
system.mem_ctrl.rdQLenPdf::26                       0                       # What read queue length does an incoming req see (Count)
system.mem_ctrl.rdQLenPdf::27                       0                       # What read queue length does an incoming req see (Count)
system.mem_ctrl.rdQLenPdf::28                       0                       # What read queue length does an incoming req see (Count)
system.mem_ctrl.rdQLenPdf::29                       0                       # What read queue length does an incoming req see (Count)
system.mem_ctrl.rdQLenPdf::30                       0                       # What read queue length does an incoming req see (Count)
[...]
system.mem_ctrl.dram.bytesWritten::total        43264                       # Number of bytes written to this memory (Byte)
system.mem_ctrl.dram.numReads::cpu.inst           909                       # Number of read requests responded to by this memory (Count)
system.mem_ctrl.dram.numReads::cpu.data          3414                       # Number of read requests responded to by this memory (Count)
system.mem_ctrl.dram.numReads::total             4323                       # Number of read requests responded to by this memory (Count)
system.mem_ctrl.dram.numWrites::writebacks          676                       # Number of write requests responded to by this memory (Count)
system.mem_ctrl.dram.numWrites::total             676                       # Number of write requests responded to by this memory (Count)
system.mem_ctrl.dram.bwRead::cpu.inst       123682935                       # Total read bandwidth from this memory ((Byte/Second))
system.mem_ctrl.dram.bwRead::cpu.data       464525346                       # Total read bandwidth from this memory ((Byte/Second))
system.mem_ctrl.dram.bwRead::total          588208281                       # Total read bandwidth from this memory ((Byte/Second))
system.mem_ctrl.dram.bwInstRead::cpu.inst    123682935                       # Instruction read bandwidth from this memory ((Byte/Second))
system.mem_ctrl.dram.bwInstRead::total      123682935                       # Instruction read bandwidth from this memory ((Byte/Second))
system.mem_ctrl.dram.bwWrite::writebacks     91979828                       # Write bandwidth from this memory ((Byte/Second))
system.mem_ctrl.dram.bwWrite::total          91979828                       # Write bandwidth from this memory ((Byte/Second))
system.mem_ctrl.dram.bwTotal::writebacks     91979828                       # Total bandwidth to/from this memory ((Byte/Second))
system.mem_ctrl.dram.bwTotal::cpu.inst      123682935                       # Total bandwidth to/from this memory ((Byte/Second))
system.mem_ctrl.dram.bwTotal::cpu.data      464525346                       # Total bandwidth to/from this memory ((Byte/Second))
system.mem_ctrl.dram.bwTotal::total         680188110                       # Total bandwidth to/from this memory ((Byte/Second))
system.mem_ctrl.dram.readBursts                  4300                       # Number of DRAM read bursts (Count)
system.mem_ctrl.dram.writeBursts                  676                       # Number of DRAM write bursts (Count)
system.mem_ctrl.dram.perBankRdBursts::0           201                       # Per bank write bursts (Count)
system.mem_ctrl.dram.perBankRdBursts::1           225                       # Per bank write bursts (Count)
system.mem_ctrl.dram.perBankRdBursts::2           313                       # Per bank write bursts (Count)
system.mem_ctrl.dram.perBankRdBursts::3           261                       # Per bank write bursts (Count)
system.mem_ctrl.dram.perBankRdBursts::4           229                       # Per bank write bursts (Count)
system.mem_ctrl.dram.perBankRdBursts::5           270                       # Per bank write bursts (Count)
system.mem_ctrl.dram.perBankRdBursts::6           372                       # Per bank write bursts (Count)
system.mem_ctrl.dram.perBankRdBursts::7           305                       # Per bank write bursts (Count)
system.mem_ctrl.dram.perBankRdBursts::8           292                       # Per bank write bursts (Count)
system.mem_ctrl.dram.perBankRdBursts::9           293                       # Per bank write bursts (Count)
system.mem_ctrl.dram.perBankRdBursts::10          305                       # Per bank write bursts (Count)
system.mem_ctrl.dram.perBankRdBursts::11          287                       # Per bank write bursts (Count)
system.mem_ctrl.dram.perBankRdBursts::12          206                       # Per bank write bursts (Count)
system.mem_ctrl.dram.perBankRdBursts::13          206                       # Per bank write bursts (Count)
system.mem_ctrl.dram.perBankRdBursts::14          308                       # Per bank write bursts (Count)
system.mem_ctrl.dram.perBankRdBursts::15          227                       # Per bank write bursts (Count)
system.mem_ctrl.dram.perBankWrBursts::0           128                       # Per bank write bursts (Count)
system.mem_ctrl.dram.perBankWrBursts::1           128                       # Per bank write bursts (Count)
system.mem_ctrl.dram.perBankWrBursts::2           136                       # Per bank write bursts (Count)
system.mem_ctrl.dram.perBankWrBursts::3            15                       # Per bank write bursts (Count)
system.mem_ctrl.dram.perBankWrBursts::4             2                       # Per bank write bursts (Count)
system.mem_ctrl.dram.perBankWrBursts::5             9                       # Per bank write bursts (Count)
system.mem_ctrl.dram.perBankWrBursts::6             6                       # Per bank write bursts (Count)
system.mem_ctrl.dram.perBankWrBursts::7             4                       # Per bank write bursts (Count)
system.mem_ctrl.dram.perBankWrBursts::8             6                       # Per bank write bursts (Count)
system.mem_ctrl.dram.perBankWrBursts::9             3                       # Per bank write bursts (Count)
system.mem_ctrl.dram.perBankWrBursts::10           44                       # Per bank write bursts (Count)
system.mem_ctrl.dram.perBankWrBursts::11            9                       # Per bank write bursts (Count)
system.mem_ctrl.dram.perBankWrBursts::12           15                       # Per bank write bursts (Count)
system.mem_ctrl.dram.perBankWrBursts::13            0                       # Per bank write bursts (Count)
system.mem_ctrl.dram.perBankWrBursts::14           32                       # Per bank write bursts (Count)
system.mem_ctrl.dram.perBankWrBursts::15          139                       # Per bank write bursts (Count)
system.mem_ctrl.dram.totQLat                 32824500                       # Total ticks spent queuing (Tick)
system.mem_ctrl.dram.totBusLat               21500000                       # Total ticks spent in databus transfers (Tick)
system.mem_ctrl.dram.totMemAccLat           113449500                       # Total ticks spent from burst creation until serviced by the DRAM (Tick)
system.mem_ctrl.dram.avgQLat                  7633.60                       # Average queueing delay per DRAM burst ((Tick/Count))
system.mem_ctrl.dram.avgBusLat                5000.00                       # Average bus latency per DRAM burst ((Tick/Count))
system.mem_ctrl.dram.avgMemAccLat            26383.60                       # Average memory access latency per DRAM burst ((Tick/Count))
system.mem_ctrl.dram.readRowHits                 3370                       # Number of row buffer hits during reads (Count)
system.mem_ctrl.dram.writeRowHits                 567                       # Number of row buffer hits during writes (Count)
system.mem_ctrl.dram.readRowHitRate             78.37                       # Row buffer hit rate for reads (Ratio)
system.mem_ctrl.dram.writeRowHitRate            83.88                       # Row buffer hit rate for writes (Ratio)
system.mem_ctrl.dram.bytesPerActivate::samples         1034                       # Bytes accessed per row activation (Byte)
system.mem_ctrl.dram.bytesPerActivate::mean   307.744681                       # Bytes accessed per row activation (Byte)
system.mem_ctrl.dram.bytesPerActivate::gmean   166.708546                       # Bytes accessed per row activation (Byte)
system.mem_ctrl.dram.bytesPerActivate::stdev   355.674689                       # Bytes accessed per row activation (Byte)
system.mem_ctrl.dram.bytesPerActivate::0-127          468     45.26%     45.26% # Bytes accessed per row activation (Byte)
system.mem_ctrl.dram.bytesPerActivate::128-255          213     20.60%     65.86% # Bytes accessed per row activation (Byte)
system.mem_ctrl.dram.bytesPerActivate::256-383           80      7.74%     73.60% # Bytes accessed per row activation (Byte)
system.mem_ctrl.dram.bytesPerActivate::384-511           38      3.68%     77.27% # Bytes accessed per row activation (Byte)
system.mem_ctrl.dram.bytesPerActivate::512-639           25      2.42%     79.69% # Bytes accessed per row activation (Byte)
system.mem_ctrl.dram.bytesPerActivate::640-767           18      1.74%     81.43% # Bytes accessed per row activation (Byte)
system.mem_ctrl.dram.bytesPerActivate::768-895           14      1.35%     82.79% # Bytes accessed per row activation (Byte)
system.mem_ctrl.dram.bytesPerActivate::896-1023           11      1.06%     83.85% # Bytes accessed per row activation (Byte)
system.mem_ctrl.dram.bytesPerActivate::1024-1151          167     16.15%    100.00% # Bytes accessed per row activation (Byte)
system.mem_ctrl.dram.bytesPerActivate::total         1034                       # Bytes accessed per row activation (Byte)
system.mem_ctrl.dram.dramBytesRead             275200                       # Total bytes read (Byte)
system.mem_ctrl.dram.dramBytesWritten           43264                       # Total bytes written (Byte)
system.mem_ctrl.dram.avgRdBW               585.078790                       # Average DRAM read bandwidth in MiBytes/s ((Byte/Second))
system.mem_ctrl.dram.avgWrBW                91.979828                       # Average DRAM write bandwidth in MiBytes/s ((Byte/Second))
system.mem_ctrl.dram.peakBW                  12800.00                       # Theoretical peak bandwidth in MiByte/s ((Byte/Second))
system.mem_ctrl.dram.busUtil                     5.29                       # Data bus utilization in percentage (Ratio)
system.mem_ctrl.dram.busUtilRead                 4.57                       # Data bus utilization in percentage for reads (Ratio)
system.mem_ctrl.dram.busUtilWrite                0.72                       # Data bus utilization in percentage for writes (Ratio)
system.mem_ctrl.dram.pageHitRate                79.12                       # Row buffer hit rate, read and write combined (Ratio)
system.mem_ctrl.dram.power_state.pwrStateResidencyTicks::UNDEFINED    470364000                       # Cumulative time (in ticks) in various power states (Tick)
system.mem_ctrl.dram.rank0.actEnergy          3805620                       # Energy for activate commands per rank (pJ) (Joule)
system.mem_ctrl.dram.rank0.preEnergy          2015145                       # Energy for precharge commands per rank (pJ) (Joule)
system.mem_ctrl.dram.rank0.readEnergy        15536640                       # Energy for read commands per rank (pJ) (Joule)
system.mem_ctrl.dram.rank0.writeEnergy        2234160                       # Energy for write commands per rank (pJ) (Joule)
system.mem_ctrl.dram.rank0.refreshEnergy 36878400.000000                       # Energy for refresh commands per rank (pJ) (Joule)
system.mem_ctrl.dram.rank0.actBackEnergy    162923100                       # Energy for active background per rank (pJ) (Joule)
system.mem_ctrl.dram.rank0.preBackEnergy     43421760                       # Energy for precharge background per rank (pJ) (Joule)
system.mem_ctrl.dram.rank0.actPowerDownEnergy            0                       # Energy for active power-down per rank (pJ) (Joule)
system.mem_ctrl.dram.rank0.prePowerDownEnergy            0                       # Energy for precharge power-down per rank (pJ) (Joule)
system.mem_ctrl.dram.rank0.selfRefreshEnergy            0                       # Energy for self refresh per rank (pJ) (Joule)
system.mem_ctrl.dram.rank0.totalEnergy      266814825                       # Total energy per rank (pJ) (Joule)
system.mem_ctrl.dram.rank0.averagePower    567.251799                       # Core power per rank (mW) (Watt)
system.mem_ctrl.dram.rank0.totalIdleTime            0                       # Total Idle time Per DRAM Rank (Tick)
system.mem_ctrl.dram.rank0.pwrStateTime::IDLE    110864750                       # Time in different power states (Tick)
system.mem_ctrl.dram.rank0.pwrStateTime::REF     15600000                       # Time in different power states (Tick)
system.mem_ctrl.dram.rank0.pwrStateTime::SREF            0                       # Time in different power states (Tick)
system.mem_ctrl.dram.rank0.pwrStateTime::PRE_PDN            0                       # Time in different power states (Tick)
system.mem_ctrl.dram.rank0.pwrStateTime::ACT    343899250                       # Time in different power states (Tick)
system.mem_ctrl.dram.rank0.pwrStateTime::ACT_PDN            0                       # Time in different power states (Tick)
system.mem_ctrl.dram.rank1.actEnergy          3612840                       # Energy for activate commands per rank (pJ) (Joule)
system.mem_ctrl.dram.rank1.preEnergy          1908885                       # Energy for precharge commands per rank (pJ) (Joule)
system.mem_ctrl.dram.rank1.readEnergy        15165360                       # Energy for read commands per rank (pJ) (Joule)
system.mem_ctrl.dram.rank1.writeEnergy        1294560                       # Energy for write commands per rank (pJ) (Joule)
system.mem_ctrl.dram.rank1.refreshEnergy 36878400.000000                       # Energy for refresh commands per rank (pJ) (Joule)
system.mem_ctrl.dram.rank1.actBackEnergy    162654060                       # Energy for active background per rank (pJ) (Joule)
system.mem_ctrl.dram.rank1.preBackEnergy     43648320                       # Energy for precharge background per rank (pJ) (Joule)
system.mem_ctrl.dram.rank1.actPowerDownEnergy            0                       # Energy for active power-down per rank (pJ) (Joule)
system.mem_ctrl.dram.rank1.prePowerDownEnergy            0                       # Energy for precharge power-down per rank (pJ) (Joule)
system.mem_ctrl.dram.rank1.selfRefreshEnergy            0                       # Energy for self refresh per rank (pJ) (Joule)
system.mem_ctrl.dram.rank1.totalEnergy      265162425                       # Total energy per rank (pJ) (Joule)
system.mem_ctrl.dram.rank1.averagePower    563.738775                       # Core power per rank (mW) (Watt)
system.mem_ctrl.dram.rank1.totalIdleTime            0                       # Total Idle time Per DRAM Rank (Tick)
system.mem_ctrl.dram.rank1.pwrStateTime::IDLE    111461500                       # Time in different power states (Tick)
system.mem_ctrl.dram.rank1.pwrStateTime::REF     15600000                       # Time in different power states (Tick)
system.mem_ctrl.dram.rank1.pwrStateTime::SREF            0                       # Time in different power states (Tick)
system.mem_ctrl.dram.rank1.pwrStateTime::PRE_PDN            0                       # Time in different power states (Tick)
system.mem_ctrl.dram.rank1.pwrStateTime::ACT    343302500                       # Time in different power states (Tick)
system.mem_ctrl.dram.rank1.pwrStateTime::ACT_PDN            0                       # Time in different power states (Tick)
system.mem_ctrl.power_state.pwrStateResidencyTicks::UNDEFINED    470364000                       # Cumulative time (in ticks) in various power states (Tick)
system.membus.transDist::ReadResp                4239                       # Transaction distribution (Count)
system.membus.transDist::WritebackDirty           676                       # Transaction distribution (Count)
system.membus.transDist::CleanEvict              3713                       # Transaction distribution (Count)
system.membus.transDist::ReadExReq                 84                       # Transaction distribution (Count)
system.membus.transDist::ReadExResp                84                       # Transaction distribution (Count)
system.membus.transDist::ReadSharedReq           4239                       # Transaction distribution (Count)
system.membus.pktCount_system.l2_cache.mem_side_port::system.mem_ctrl.port        13035                       # Packet count per connected requestor and responder (Count)
system.membus.pktCount_system.l2_cache.mem_side_port::total        13035                       # Packet count per connected requestor and responder (Count)
system.membus.pktCount::total                   13035                       # Packet count per connected requestor and responder (Count)
system.membus.pktSize_system.l2_cache.mem_side_port::system.mem_ctrl.port       319936                       # Cumulative packet size per connected requestor and responder (Byte)
system.membus.pktSize_system.l2_cache.mem_side_port::total       319936                       # Cumulative packet size per connected requestor and responder (Byte)
system.membus.pktSize::total                   319936                       # Cumulative packet size per connected requestor and responder (Byte)
system.membus.snoops                                0                       # Total snoops (Count)
system.membus.snoopTraffic                          0                       # Total snoop traffic (Byte)
system.membus.snoopFanout::samples               4323                       # Request fanout histogram (Count)
system.membus.snoopFanout::mean                     0                       # Request fanout histogram (Count)
system.membus.snoopFanout::stdev                    0                       # Request fanout histogram (Count)
system.membus.snoopFanout::underflows               0      0.00%      0.00% # Request fanout histogram (Count)
system.membus.snoopFanout::0                     4323    100.00%    100.00% # Request fanout histogram (Count)
system.membus.snoopFanout::1                        0      0.00%    100.00% # Request fanout histogram (Count)
system.membus.snoopFanout::overflows                0      0.00%    100.00% # Request fanout histogram (Count)
system.membus.snoopFanout::min_value                0                       # Request fanout histogram (Count)
system.membus.snoopFanout::max_value                0                       # Request fanout histogram (Count)
system.membus.snoopFanout::total                 4323                       # Request fanout histogram (Count)
system.membus.power_state.pwrStateResidencyTicks::UNDEFINED    470364000                       # Cumulative time (in ticks) in various power states (Tick)
system.membus.reqLayer2.occupancy            11416000                       # Layer occupancy (ticks) (Tick)
system.membus.reqLayer2.utilization               0.0                       # Layer utilization (Ratio)
system.membus.respLayer2.occupancy           23006250                       # Layer occupancy (ticks) (Tick)
system.membus.respLayer2.utilization              0.0                       # Layer utilization (Ratio)
system.membus.snoop_filter.totRequests           8712                       # Total number of requests made to the snoop filter. (Count)
system.membus.snoop_filter.hitSingleRequests         4389                       # Number of requests hitting in the snoop filter with a single holder of the requested data. (Count)
system.membus.snoop_filter.hitMultiRequests            0                       # Number of requests hitting in the snoop filter with multiple (>1) holders of the requested data. (Count)
system.membus.snoop_filter.totSnoops                0                       # Total number of snoops made to the snoop filter. (Count)
system.membus.snoop_filter.hitSingleSnoops            0                       # Number of snoops hitting in the snoop filter with a single holder of the requested data. (Count)
system.membus.snoop_filter.hitMultiSnoops            0                       # Number of snoops hitting in the snoop filter with multiple (>1) holders of the requested data. (Count)
system.workload.inst.arm                            0                       # number of arm instructions executed (Count)
system.workload.inst.quiesce                        0                       # number of quiesce instructions executed (Count)

---------- End Simulation Statistics   ----------
