
---------- Begin Simulation Statistics ----------
simSeconds                                   2.090015                       # Number of seconds simulated (Second)
simTicks                                 2090015053000                       # Number of ticks simulated (Tick)
finalTick                                2090015053000                       # Number of ticks from beginning of simulation (restored from checkpoints and never reset) (Tick)
simFreq                                  1000000000000                       # The number of ticks per simulated second ((Tick/Second))
hostSeconds                                   9361.96                       # Real time elapsed on the host (Second)
hostTickRate                                223245340                       # The number of ticks simulated per host second (ticks/s) ((Tick/Second))
hostMemory                                    8787196                       # Number of bytes of host memory used (Byte)
simInsts                                   1956594446                       # Number of instructions simulated (Count)
simOps                                     3435611143                       # Number of ops (including micro ops) simulated (Count)
hostInstRate                                   208994                       # Simulator instruction rate (inst/s) ((Count/Second))
hostOpRate                                     366975                       # Simulator op (including micro ops) rate (op/s) ((Count/Second))
system.clk_domain.clock                          1000                       # Clock period in ticks (Tick)
system.clk_domain.voltage_domain.voltage            1                       # Voltage in Volts (Volt)
system.cpu.numCycles                       2090015054                       # Number of cpu cycles simulated (Cycle)
system.cpu.cpi                               1.068190                       # CPI: cycles per instruction (core level) ((Cycle/Count))
system.cpu.ipc                               0.936163                       # IPC: instructions per cycle (core level) ((Count/Cycle))
system.cpu.numWorkItemsStarted                      0                       # Number of work items this cpu started (Count)
system.cpu.numWorkItemsCompleted                    0                       # Number of work items this cpu completed (Count)
system.cpu.instsAdded                      5083999094                       # Number of instructions added to the IQ (excludes non-spec) (Count)
system.cpu.nonSpecInstsAdded                   450337                       # Number of non-speculative instructions added to the IQ (Count)
system.cpu.instsIssued                     4747665738                       # Number of instructions issued (Count)
system.cpu.squashedInstsIssued               18598917                       # Number of squashed instructions issued (Count)
system.cpu.squashedInstsExamined           1648838267                       # Number of squashed instructions iterated over during squash; mainly for profiling (Count)
system.cpu.squashedOperandsExamined        2071921269                       # Number of squashed operands that are examined and possibly removed from graph (Count)
system.cpu.squashedNonSpecRemoved               49667                       # Number of squashed non-spec instructions that were removed (Count)
system.cpu.numIssuedDist::samples          2082922931                       # Number of insts issued each cycle (Count)
system.cpu.numIssuedDist::mean               2.279329                       # Number of insts issued each cycle (Count)
system.cpu.numIssuedDist::stdev              2.616396                       # Number of insts issued each cycle (Count)
system.cpu.numIssuedDist::underflows                0      0.00%      0.00% # Number of insts issued each cycle (Count)
system.cpu.numIssuedDist::0                 855622369     41.08%     41.08% # Number of insts issued each cycle (Count)
system.cpu.numIssuedDist::1                 209317812     10.05%     51.13% # Number of insts issued each cycle (Count)
system.cpu.numIssuedDist::2                 255673368     12.27%     63.40% # Number of insts issued each cycle (Count)
system.cpu.numIssuedDist::3                 196631327      9.44%     72.84% # Number of insts issued each cycle (Count)
system.cpu.numIssuedDist::4                 115654609      5.55%     78.39% # Number of insts issued each cycle (Count)
system.cpu.numIssuedDist::5                  94924352      4.56%     82.95% # Number of insts issued each cycle (Count)
system.cpu.numIssuedDist::6                 121231597      5.82%     88.77% # Number of insts issued each cycle (Count)
system.cpu.numIssuedDist::7                  98462545      4.73%     93.50% # Number of insts issued each cycle (Count)
system.cpu.numIssuedDist::8                 135404952      6.50%    100.00% # Number of insts issued each cycle (Count)
system.cpu.numIssuedDist::overflows                 0      0.00%    100.00% # Number of insts issued each cycle (Count)
system.cpu.numIssuedDist::min_value                 0                       # Number of insts issued each cycle (Count)
system.cpu.numIssuedDist::max_value                 8                       # Number of insts issued each cycle (Count)
system.cpu.numIssuedDist::total            2082922931                       # Number of insts issued each cycle (Count)
system.cpu.statFuBusy::No_OpClass                   0      0.00%      0.00% # attempts to use FU when none available (Count)
system.cpu.statFuBusy::IntAlu                17744618     81.36%     81.36% # attempts to use FU when none available (Count)
system.cpu.statFuBusy::IntMult                      0      0.00%     81.36% # attempts to use FU when none available (Count)
system.cpu.statFuBusy::IntDiv                       0      0.00%     81.36% # attempts to use FU when none available (Count)
system.cpu.statFuBusy::FloatAdd                     0      0.00%     81.36% # attempts to use FU when none available (Count)
system.cpu.statFuBusy::FloatCmp                     0      0.00%     81.36% # attempts to use FU when none available (Count)
system.cpu.statFuBusy::FloatCvt                     0      0.00%     81.36% # attempts to use FU when none available (Count)
system.cpu.statFuBusy::FloatMult                    0      0.00%     81.36% # attempts to use FU when none available (Count)
system.cpu.statFuBusy::FloatMultAcc                 0      0.00%     81.36% # attempts to use FU when none available (Count)
system.cpu.statFuBusy::FloatDiv                     0      0.00%     81.36% # attempts to use FU when none available (Count)
system.cpu.statFuBusy::FloatMisc                    0      0.00%     81.36% # attempts to use FU when none available (Count)
system.cpu.statFuBusy::FloatSqrt                    0      0.00%     81.36% # attempts to use FU when none available (Count)
system.cpu.statFuBusy::SimdAdd                     13      0.00%     81.36% # attempts to use FU when none available (Count)
system.cpu.statFuBusy::SimdAddAcc                   0      0.00%     81.36% # attempts to use FU when none available (Count)
system.cpu.statFuBusy::SimdAlu                  27821      0.13%     81.49% # attempts to use FU when none available (Count)
system.cpu.statFuBusy::SimdCmp                      2      0.00%     81.49% # attempts to use FU when none available (Count)
system.cpu.statFuBusy::SimdCvt                    242      0.00%     81.49% # attempts to use FU when none available (Count)
system.cpu.statFuBusy::SimdMisc                   141      0.00%     81.49% # attempts to use FU when none available (Count)
system.cpu.statFuBusy::SimdMult                     0      0.00%     81.49% # attempts to use FU when none available (Count)
system.cpu.statFuBusy::SimdMultAcc                  0      0.00%     81.49% # attempts to use FU when none available (Count)
system.cpu.statFuBusy::SimdMatMultAcc               0      0.00%     81.49% # attempts to use FU when none available (Count)
system.cpu.statFuBusy::SimdShift                   92      0.00%     81.49% # attempts to use FU when none available (Count)
system.cpu.statFuBusy::SimdShiftAcc                 0      0.00%     81.49% # attempts to use FU when none available (Count)
system.cpu.statFuBusy::SimdDiv                      0      0.00%     81.49% # attempts to use FU when none available (Count)
system.cpu.statFuBusy::SimdSqrt                     0      0.00%     81.49% # attempts to use FU when none available (Count)
system.cpu.statFuBusy::SimdFloatAdd                 0      0.00%     81.49% # attempts to use FU when none available (Count)
system.cpu.statFuBusy::SimdFloatAlu                 0      0.00%     81.49% # attempts to use FU when none available (Count)
system.cpu.statFuBusy::SimdFloatCmp                 0      0.00%     81.49% # attempts to use FU when none available (Count)
system.cpu.statFuBusy::SimdFloatCvt             42207      0.19%     81.68% # attempts to use FU when none available (Count)
system.cpu.statFuBusy::SimdFloatDiv                 0      0.00%     81.68% # attempts to use FU when none available (Count)
system.cpu.statFuBusy::SimdFloatMisc                0      0.00%     81.68% # attempts to use FU when none available (Count)
system.cpu.statFuBusy::SimdFloatMult                0      0.00%     81.68% # attempts to use FU when none available (Count)
system.cpu.statFuBusy::SimdFloatMultAcc             0      0.00%     81.68% # attempts to use FU when none available (Count)
system.cpu.statFuBusy::SimdFloatMatMultAcc            0      0.00%     81.68% # attempts to use FU when none available (Count)
system.cpu.statFuBusy::SimdFloatSqrt                0      0.00%     81.68% # attempts to use FU when none available (Count)
system.cpu.statFuBusy::SimdReduceAdd                0      0.00%     81.68% # attempts to use FU when none available (Count)
system.cpu.statFuBusy::SimdReduceAlu                0      0.00%     81.68% # attempts to use FU when none available (Count)
system.cpu.statFuBusy::SimdReduceCmp                0      0.00%     81.68% # attempts to use FU when none available (Count)
system.cpu.statFuBusy::SimdFloatReduceAdd            0      0.00%     81.68% # attempts to use FU when none available (Count)
system.cpu.statFuBusy::SimdFloatReduceCmp            0      0.00%     81.68% # attempts to use FU when none available (Count)
system.cpu.statFuBusy::SimdAes                      0      0.00%     81.68% # attempts to use FU when none available (Count)
system.cpu.statFuBusy::SimdAesMix                   0      0.00%     81.68% # attempts to use FU when none available (Count)
system.cpu.statFuBusy::SimdSha1Hash                 0      0.00%     81.68% # attempts to use FU when none available (Count)
system.cpu.statFuBusy::SimdSha1Hash2                0      0.00%     81.68% # attempts to use FU when none available (Count)
system.cpu.statFuBusy::SimdSha256Hash               0      0.00%     81.68% # attempts to use FU when none available (Count)
system.cpu.statFuBusy::SimdSha256Hash2              0      0.00%     81.68% # attempts to use FU when none available (Count)
system.cpu.statFuBusy::SimdShaSigma2                0      0.00%     81.68% # attempts to use FU when none available (Count)
system.cpu.statFuBusy::SimdShaSigma3                0      0.00%     81.68% # attempts to use FU when none available (Count)
system.cpu.statFuBusy::SimdPredAlu                  0      0.00%     81.68% # attempts to use FU when none available (Count)
system.cpu.statFuBusy::Matrix                       0      0.00%     81.68% # attempts to use FU when none available (Count)
system.cpu.statFuBusy::MatrixMov                    0      0.00%     81.68% # attempts to use FU when none available (Count)
system.cpu.statFuBusy::MatrixOP                     0      0.00%     81.68% # attempts to use FU when none available (Count)
system.cpu.statFuBusy::MemRead                1372515      6.29%     87.98% # attempts to use FU when none available (Count)
system.cpu.statFuBusy::MemWrite                629059      2.88%     90.86% # attempts to use FU when none available (Count)
system.cpu.statFuBusy::FloatMemRead           1680721      7.71%     98.57% # attempts to use FU when none available (Count)
system.cpu.statFuBusy::FloatMemWrite           312869      1.43%    100.00% # attempts to use FU when none available (Count)
system.cpu.statFuBusy::IprAccess                    0      0.00%    100.00% # attempts to use FU when none available (Count)
system.cpu.statFuBusy::InstPrefetch                 0      0.00%    100.00% # attempts to use FU when none available (Count)
system.cpu.statFuBusy::SimdUnitStrideLoad            0      0.00%    100.00% # attempts to use FU when none available (Count)
system.cpu.statFuBusy::SimdUnitStrideStore            0      0.00%    100.00% # attempts to use FU when none available (Count)
system.cpu.statFuBusy::SimdUnitStrideMaskLoad            0      0.00%    100.00% # attempts to use FU when none available (Count)
system.cpu.statFuBusy::SimdUnitStrideMaskStore            0      0.00%    100.00% # attempts to use FU when none available (Count)
system.cpu.statFuBusy::SimdStridedLoad              0      0.00%    100.00% # attempts to use FU when none available (Count)
system.cpu.statFuBusy::SimdStridedStore             0      0.00%    100.00% # attempts to use FU when none available (Count)
system.cpu.statFuBusy::SimdIndexedLoad              0      0.00%    100.00% # attempts to use FU when none available (Count)
system.cpu.statFuBusy::SimdIndexedStore             0      0.00%    100.00% # attempts to use FU when none available (Count)
system.cpu.statFuBusy::SimdWholeRegisterLoad            0      0.00%    100.00% # attempts to use FU when none available (Count)
system.cpu.statFuBusy::SimdWholeRegisterStore            0      0.00%    100.00% # attempts to use FU when none available (Count)
system.cpu.statFuBusy::SimdUnitStrideFaultOnlyFirstLoad            0      0.00%    100.00% # attempts to use FU when none available (Count)
system.cpu.statFuBusy::SimdUnitStrideSegmentedLoad            0      0.00%    100.00% # attempts to use FU when none available (Count)
system.cpu.statFuBusy::SimdUnitStrideSegmentedStore            0      0.00%    100.00% # attempts to use FU when none available (Count)
system.cpu.statFuBusy::SimdExt                      0      0.00%    100.00% # attempts to use FU when none available (Count)
system.cpu.statFuBusy::SimdFloatExt                 0      0.00%    100.00% # attempts to use FU when none available (Count)
system.cpu.statFuBusy::SimdConfig                   0      0.00%    100.00% # attempts to use FU when none available (Count)
system.cpu.statIssuedInstType_0::No_OpClass     44121435      0.93%      0.93% # Number of instructions issued per FU type, per thread (Count)
system.cpu.statIssuedInstType_0::IntAlu    3287238572     69.24%     70.17% # Number of instructions issued per FU type, per thread (Count)
system.cpu.statIssuedInstType_0::IntMult      1049106      0.02%     70.19% # Number of instructions issued per FU type, per thread (Count)
system.cpu.statIssuedInstType_0::IntDiv         49484      0.00%     70.19% # Number of instructions issued per FU type, per thread (Count)
system.cpu.statIssuedInstType_0::FloatAdd    351567105      7.41%     77.60% # Number of instructions issued per FU type, per thread (Count)
system.cpu.statIssuedInstType_0::FloatCmp            0      0.00%     77.60% # Number of instructions issued per FU type, per thread (Count)
system.cpu.statIssuedInstType_0::FloatCvt         1494      0.00%     77.60% # Number of instructions issued per FU type, per thread (Count)
system.cpu.statIssuedInstType_0::FloatMult            0      0.00%     77.60% # Number of instructions issued per FU type, per thread (Count)
system.cpu.statIssuedInstType_0::FloatMultAcc            0      0.00%     77.60% # Number of instructions issued per FU type, per thread (Count)
system.cpu.statIssuedInstType_0::FloatDiv            0      0.00%     77.60% # Number of instructions issued per FU type, per thread (Count)
system.cpu.statIssuedInstType_0::FloatMisc            0      0.00%     77.60% # Number of instructions issued per FU type, per thread (Count)
system.cpu.statIssuedInstType_0::FloatSqrt            0      0.00%     77.60% # Number of instructions issued per FU type, per thread (Count)
system.cpu.statIssuedInstType_0::SimdAdd         7571      0.00%     77.60% # Number of instructions issued per FU type, per thread (Count)
system.cpu.statIssuedInstType_0::SimdAddAcc            0      0.00%     77.60% # Number of instructions issued per FU type, per thread (Count)
system.cpu.statIssuedInstType_0::SimdAlu      1058561      0.02%     77.62% # Number of instructions issued per FU type, per thread (Count)
system.cpu.statIssuedInstType_0::SimdCmp           16      0.00%     77.62% # Number of instructions issued per FU type, per thread (Count)
system.cpu.statIssuedInstType_0::SimdCvt        76297      0.00%     77.62% # Number of instructions issued per FU type, per thread (Count)
system.cpu.statIssuedInstType_0::SimdMisc     11198600      0.24%     77.86% # Number of instructions issued per FU type, per thread (Count)
system.cpu.statIssuedInstType_0::SimdMult            0      0.00%     77.86% # Number of instructions issued per FU type, per thread (Count)
system.cpu.statIssuedInstType_0::SimdMultAcc            0      0.00%     77.86% # Number of instructions issued per FU type, per thread (Count)
system.cpu.statIssuedInstType_0::SimdMatMultAcc            0      0.00%     77.86% # Number of instructions issued per FU type, per thread (Count)
system.cpu.statIssuedInstType_0::SimdShift         4354      0.00%     77.86% # Number of instructions issued per FU type, per thread (Count)
system.cpu.statIssuedInstType_0::SimdShiftAcc            0      0.00%     77.86% # Number of instructions issued per FU type, per thread (Count)
system.cpu.statIssuedInstType_0::SimdDiv            0      0.00%     77.86% # Number of instructions issued per FU type, per thread (Count)
system.cpu.statIssuedInstType_0::SimdSqrt            0      0.00%     77.86% # Number of instructions issued per FU type, per thread (Count)
system.cpu.statIssuedInstType_0::SimdFloatAdd          408      0.00%     77.86% # Number of instructions issued per FU type, per thread (Count)
system.cpu.statIssuedInstType_0::SimdFloatAlu            0      0.00%     77.86% # Number of instructions issued per FU type, per thread (Count)
system.cpu.statIssuedInstType_0::SimdFloatCmp            0      0.00%     77.86% # Number of instructions issued per FU type, per thread (Count)
system.cpu.statIssuedInstType_0::SimdFloatCvt    265514287      5.59%     83.45% # Number of instructions issued per FU type, per thread (Count)
system.cpu.statIssuedInstType_0::SimdFloatDiv       100380      0.00%     83.45% # Number of instructions issued per FU type, per thread (Count)
system.cpu.statIssuedInstType_0::SimdFloatMisc            0      0.00%     83.45% # Number of instructions issued per FU type, per thread (Count)
system.cpu.statIssuedInstType_0::SimdFloatMult           11      0.00%     83.45% # Number of instructions issued per FU type, per thread (Count)
system.cpu.statIssuedInstType_0::SimdFloatMultAcc            0      0.00%     83.45% # Number of instructions issued per FU type, per thread (Count)
system.cpu.statIssuedInstType_0::SimdFloatMatMultAcc            0      0.00%     83.45% # Number of instructions issued per FU type, per thread (Count)
system.cpu.statIssuedInstType_0::SimdFloatSqrt            0      0.00%     83.45% # Number of instructions issued per FU type, per thread (Count)
system.cpu.statIssuedInstType_0::SimdReduceAdd            0      0.00%     83.45% # Number of instructions issued per FU type, per thread (Count)
system.cpu.statIssuedInstType_0::SimdReduceAlu            0      0.00%     83.45% # Number of instructions issued per FU type, per thread (Count)
system.cpu.statIssuedInstType_0::SimdReduceCmp            0      0.00%     83.45% # Number of instructions issued per FU type, per thread (Count)
system.cpu.statIssuedInstType_0::SimdFloatReduceAdd            0      0.00%     83.45% # Number of instructions issued per FU type, per thread (Count)
system.cpu.statIssuedInstType_0::SimdFloatReduceCmp            0      0.00%     83.45% # Number of instructions issued per FU type, per thread (Count)
system.cpu.statIssuedInstType_0::SimdAes            0      0.00%     83.45% # Number of instructions issued per FU type, per thread (Count)
system.cpu.statIssuedInstType_0::SimdAesMix            0      0.00%     83.45% # Number of instructions issued per FU type, per thread (Count)
system.cpu.statIssuedInstType_0::SimdSha1Hash            0      0.00%     83.45% # Number of instructions issued per FU type, per thread (Count)
system.cpu.statIssuedInstType_0::SimdSha1Hash2            0      0.00%     83.45% # Number of instructions issued per FU type, per thread (Count)
system.cpu.statIssuedInstType_0::SimdSha256Hash            0      0.00%     83.45% # Number of instructions issued per FU type, per thread (Count)
system.cpu.statIssuedInstType_0::SimdSha256Hash2            0      0.00%     83.45% # Number of instructions issued per FU type, per thread (Count)
system.cpu.statIssuedInstType_0::SimdShaSigma2            0      0.00%     83.45% # Number of instructions issued per FU type, per thread (Count)
system.cpu.statIssuedInstType_0::SimdShaSigma3            0      0.00%     83.45% # Number of instructions issued per FU type, per thread (Count)
system.cpu.statIssuedInstType_0::SimdPredAlu            0      0.00%     83.45% # Number of instructions issued per FU type, per thread (Count)
system.cpu.statIssuedInstType_0::Matrix             0      0.00%     83.45% # Number of instructions issued per FU type, per thread (Count)
system.cpu.statIssuedInstType_0::MatrixMov            0      0.00%     83.45% # Number of instructions issued per FU type, per thread (Count)
system.cpu.statIssuedInstType_0::MatrixOP            0      0.00%     83.45% # Number of instructions issued per FU type, per thread (Count)
system.cpu.statIssuedInstType_0::MemRead    139555779      2.94%     86.39% # Number of instructions issued per FU type, per thread (Count)
system.cpu.statIssuedInstType_0::MemWrite     69958225      1.47%     87.86% # Number of instructions issued per FU type, per thread (Count)
system.cpu.statIssuedInstType_0::FloatMemRead    412204714      8.68%     96.55% # Number of instructions issued per FU type, per thread (Count)
system.cpu.statIssuedInstType_0::FloatMemWrite    163959339      3.45%    100.00% # Number of instructions issued per FU type, per thread (Count)
system.cpu.statIssuedInstType_0::IprAccess            0      0.00%    100.00% # Number of instructions issued per FU type, per thread (Count)
system.cpu.statIssuedInstType_0::InstPrefetch            0      0.00%    100.00% # Number of instructions issued per FU type, per thread (Count)
system.cpu.statIssuedInstType_0::SimdUnitStrideLoad            0      0.00%    100.00% # Number of instructions issued per FU type, per thread (Count)
system.cpu.statIssuedInstType_0::SimdUnitStrideStore            0      0.00%    100.00% # Number of instructions issued per FU type, per thread (Count)
system.cpu.statIssuedInstType_0::SimdUnitStrideMaskLoad            0      0.00%    100.00% # Number of instructions issued per FU type, per thread (Count)
system.cpu.statIssuedInstType_0::SimdUnitStrideMaskStore            0      0.00%    100.00% # Number of instructions issued per FU type, per thread (Count)
system.cpu.statIssuedInstType_0::SimdStridedLoad            0      0.00%    100.00% # Number of instructions issued per FU type, per thread (Count)
system.cpu.statIssuedInstType_0::SimdStridedStore            0      0.00%    100.00% # Number of instructions issued per FU type, per thread (Count)
system.cpu.statIssuedInstType_0::SimdIndexedLoad            0      0.00%    100.00% # Number of instructions issued per FU type, per thread (Count)
system.cpu.statIssuedInstType_0::SimdIndexedStore            0      0.00%    100.00% # Number of instructions issued per FU type, per thread (Count)
system.cpu.statIssuedInstType_0::SimdWholeRegisterLoad            0      0.00%    100.00% # Number of instructions issued per FU type, per thread (Count)
system.cpu.statIssuedInstType_0::SimdWholeRegisterStore            0      0.00%    100.00% # Number of instructions issued per FU type, per thread (Count)
system.cpu.statIssuedInstType_0::SimdUnitStrideFaultOnlyFirstLoad            0      0.00%    100.00% # Number of instructions issued per FU type, per thread (Count)
system.cpu.statIssuedInstType_0::SimdUnitStrideSegmentedLoad            0      0.00%    100.00% # Number of instructions issued per FU type, per thread (Count)
system.cpu.statIssuedInstType_0::SimdUnitStrideSegmentedStore            0      0.00%    100.00% # Number of instructions issued per FU type, per thread (Count)
system.cpu.statIssuedInstType_0::SimdExt            0      0.00%    100.00% # Number of instructions issued per FU type, per thread (Count)
system.cpu.statIssuedInstType_0::SimdFloatExt            0      0.00%    100.00% # Number of instructions issued per FU type, per thread (Count)
system.cpu.statIssuedInstType_0::SimdConfig            0      0.00%    100.00% # Number of instructions issued per FU type, per thread (Count)
system.cpu.statIssuedInstType_0::total     4747665738                       # Number of instructions issued per FU type, per thread (Count)
system.cpu.issueRate                         2.271594                       # Inst issue rate ((Count/Cycle))
system.cpu.fuBusy                            21810300                       # FU busy when requested (Count)
system.cpu.fuBusyRate                        0.004594                       # FU busy rate (busy events/executed inst) ((Count/Count))
system.cpu.intInstQueueReads               9181275431                       # Number of integer instruction queue reads (Count)
system.cpu.intInstQueueWrites              4782506741                       # Number of integer instruction queue writes (Count)
system.cpu.intInstQueueWakeupAccesses      3401108205                       # Number of integer instruction queue wakeup accesses (Count)
system.cpu.fpInstQueueReads                2437388192                       # Number of floating instruction queue reads (Count)
system.cpu.fpInstQueueWrites               1950883894                       # Number of floating instruction queue writes (Count)
system.cpu.fpInstQueueWakeupAccesses       1079751315                       # Number of floating instruction queue wakeup accesses (Count)
system.cpu.vecInstQueueReads                        0                       # Number of vector instruction queue reads (Count)
system.cpu.vecInstQueueWrites                       0                       # Number of vector instruction queue writes (Count)
system.cpu.vecInstQueueWakeupAccesses               0                       # Number of vector instruction queue wakeup accesses (Count)
system.cpu.intAluAccesses                  3507420130                       # Number of integer alu accesses (Count)
system.cpu.fpAluAccesses                   1217934473                       # Number of floating point alu accesses (Count)
system.cpu.vecAluAccesses                           0                       # Number of vector alu accesses (Count)
system.cpu.numSquashedInsts                 218364286                       # Number of squashed instructions skipped in execute (Count)
system.cpu.numSwp                                   0                       # Number of swp insts executed (Count)
system.cpu.timesIdled                          173224                       # Number of times that the entire CPU went into an idle state and unscheduled itself (Count)
system.cpu.idleCycles                         7092123                       # Total number of cycles that the CPU has spent unscheduled due to idling (Cycle)
system.cpu.MemDepUnit__0.insertedLoads      595401656                       # Number of loads inserted to the mem dependence unit. (Count)
system.cpu.MemDepUnit__0.insertedStores     254255497                       # Number of stores inserted to the mem dependence unit. (Count)
system.cpu.MemDepUnit__0.conflictingLoads     82659230                       # Number of conflicting loads. (Count)
system.cpu.MemDepUnit__0.conflictingStores     33756963                       # Number of conflicting stores. (Count)
system.cpu.MemDepUnit__1.insertedLoads              0                       # Number of loads inserted to the mem dependence unit. (Count)
system.cpu.MemDepUnit__1.insertedStores             0                       # Number of stores inserted to the mem dependence unit. (Count)
system.cpu.MemDepUnit__1.conflictingLoads            0                       # Number of conflicting loads. (Count)
system.cpu.MemDepUnit__1.conflictingStores            0                       # Number of conflicting stores. (Count)
system.cpu.MemDepUnit__2.insertedLoads              0                       # Number of loads inserted to the mem dependence unit. (Count)
system.cpu.MemDepUnit__2.insertedStores             0                       # Number of stores inserted to the mem dependence unit. (Count)
system.cpu.MemDepUnit__2.conflictingLoads            0                       # Number of conflicting loads. (Count)
system.cpu.MemDepUnit__2.conflictingStores            0                       # Number of conflicting stores. (Count)
system.cpu.MemDepUnit__3.insertedLoads              0                       # Number of loads inserted to the mem dependence unit. (Count)
system.cpu.MemDepUnit__3.insertedStores             0                       # Number of stores inserted to the mem dependence unit. (Count)
system.cpu.MemDepUnit__3.conflictingLoads            0                       # Number of conflicting loads. (Count)
system.cpu.MemDepUnit__3.conflictingStores            0                       # Number of conflicting stores. (Count)
system.cpu.branchPred.lookups_0::NoBranch         2884      0.00%      0.00% # Number of BP lookups (Count)
system.cpu.branchPred.lookups_0::Return       7129233      0.92%      0.92% # Number of BP lookups (Count)
system.cpu.branchPred.lookups_0::CallDirect      6597568      0.85%      1.76% # Number of BP lookups (Count)
system.cpu.branchPred.lookups_0::CallIndirect         5509      0.00%      1.76% # Number of BP lookups (Count)
system.cpu.branchPred.lookups_0::DirectCond    696734061     89.51%     91.27% # Number of BP lookups (Count)
system.cpu.branchPred.lookups_0::DirectUncond     64578449      8.30%     99.57% # Number of BP lookups (Count)
system.cpu.branchPred.lookups_0::IndirectCond            0      0.00%     99.57% # Number of BP lookups (Count)
system.cpu.branchPred.lookups_0::IndirectUncond      3343882      0.43%    100.00% # Number of BP lookups (Count)
system.cpu.branchPred.lookups_0::total      778391586                       # Number of BP lookups (Count)
system.cpu.branchPred.squashes_0::NoBranch         2570      0.00%      0.00% # Number of branches that got squashed (completely removed) as an earlier branch was mispredicted. (Count)
system.cpu.branchPred.squashes_0::Return      3467448      0.81%      0.81% # Number of branches that got squashed (completely removed) as an earlier branch was mispredicted. (Count)
system.cpu.branchPred.squashes_0::CallDirect      2940161      0.69%      1.50% # Number of branches that got squashed (completely removed) as an earlier branch was mispredicted. (Count)
system.cpu.branchPred.squashes_0::CallIndirect         1126      0.00%      1.50% # Number of branches that got squashed (completely removed) as an earlier branch was mispredicted. (Count)
system.cpu.branchPred.squashes_0::DirectCond    373601480     87.68%     89.19% # Number of branches that got squashed (completely removed) as an earlier branch was mispredicted. (Count)
system.cpu.branchPred.squashes_0::DirectUncond     44659970     10.48%     99.67% # Number of branches that got squashed (completely removed) as an earlier branch was mispredicted. (Count)
system.cpu.branchPred.squashes_0::IndirectCond            0      0.00%     99.67% # Number of branches that got squashed (completely removed) as an earlier branch was mispredicted. (Count)
system.cpu.branchPred.squashes_0::IndirectUncond      1411385      0.33%    100.00% # Number of branches that got squashed (completely removed) as an earlier branch was mispredicted. (Count)
system.cpu.branchPred.squashes_0::total     426084140                       # Number of branches that got squashed (completely removed) as an earlier branch was mispredicted. (Count)
system.cpu.branchPred.corrected_0::NoBranch          555      0.00%      0.00% # Number of branches that got corrected but not yet commited. Branches get corrected by decode or after execute. Also a branch misprediction can be detected out-of-order. Therefore, a corrected branch might not end up beeing committed in case an even earlier branch was mispredicted (Count)
system.cpu.branchPred.corrected_0::Return         1614      0.00%      0.00% # Number of branches that got corrected but not yet commited. Branches get corrected by decode or after execute. Also a branch misprediction can be detected out-of-order. Therefore, a corrected branch might not end up beeing committed in case an even earlier branch was mispredicted (Count)
system.cpu.branchPred.corrected_0::CallDirect         6234      0.01%      0.02% # Number of branches that got corrected but not yet commited. Branches get corrected by decode or after execute. Also a branch misprediction can be detected out-of-order. Therefore, a corrected branch might not end up beeing committed in case an even earlier branch was mispredicted (Count)
system.cpu.branchPred.corrected_0::CallIndirect          866      0.00%      0.02% # Number of branches that got corrected but not yet commited. Branches get corrected by decode or after execute. Also a branch misprediction can be detected out-of-order. Therefore, a corrected branch might not end up beeing committed in case an even earlier branch was mispredicted (Count)
system.cpu.branchPred.corrected_0::DirectCond     46470328     99.82%     99.84% # Number of branches that got corrected but not yet commited. Branches get corrected by decode or after execute. Also a branch misprediction can be detected out-of-order. Therefore, a corrected branch might not end up beeing committed in case an even earlier branch was mispredicted (Count)
system.cpu.branchPred.corrected_0::DirectUncond         4895      0.01%     99.85% # Number of branches that got corrected but not yet commited. Branches get corrected by decode or after execute. Also a branch misprediction can be detected out-of-order. Therefore, a corrected branch might not end up beeing committed in case an even earlier branch was mispredicted (Count)
system.cpu.branchPred.corrected_0::IndirectCond            0      0.00%     99.85% # Number of branches that got corrected but not yet commited. Branches get corrected by decode or after execute. Also a branch misprediction can be detected out-of-order. Therefore, a corrected branch might not end up beeing committed in case an even earlier branch was mispredicted (Count)
system.cpu.branchPred.corrected_0::IndirectUncond        70361      0.15%    100.00% # Number of branches that got corrected but not yet commited. Branches get corrected by decode or after execute. Also a branch misprediction can be detected out-of-order. Therefore, a corrected branch might not end up beeing committed in case an even earlier branch was mispredicted (Count)
system.cpu.branchPred.corrected_0::total     46554853                       # Number of branches that got corrected but not yet commited. Branches get corrected by decode or after execute. Also a branch misprediction can be detected out-of-order. Therefore, a corrected branch might not end up beeing committed in case an even earlier branch was mispredicted (Count)
system.cpu.branchPred.earlyResteers_0::NoBranch            0                       # Number of branches that got redirected after decode. (Count)
system.cpu.branchPred.earlyResteers_0::Return            0                       # Number of branches that got redirected after decode. (Count)
system.cpu.branchPred.earlyResteers_0::CallDirect            0                       # Number of branches that got redirected after decode. (Count)
system.cpu.branchPred.earlyResteers_0::CallIndirect            0                       # Number of branches that got redirected after decode. (Count)
system.cpu.branchPred.earlyResteers_0::DirectCond            0                       # Number of branches that got redirected after decode. (Count)
system.cpu.branchPred.earlyResteers_0::DirectUncond            0                       # Number of branches that got redirected after decode. (Count)
system.cpu.branchPred.earlyResteers_0::IndirectCond            0                       # Number of branches that got redirected after decode. (Count)
system.cpu.branchPred.earlyResteers_0::IndirectUncond            0                       # Number of branches that got redirected after decode. (Count)
system.cpu.branchPred.earlyResteers_0::total            0                       # Number of branches that got redirected after decode. (Count)
system.cpu.branchPred.committed_0::NoBranch          314      0.00%      0.00% # Number of branches finally committed  (Count)
system.cpu.branchPred.committed_0::Return      3661784      1.04%      1.04% # Number of branches finally committed  (Count)
system.cpu.branchPred.committed_0::CallDirect      3657406      1.04%      2.08% # Number of branches finally committed  (Count)
system.cpu.branchPred.committed_0::CallIndirect         4383      0.00%      2.08% # Number of branches finally committed  (Count)
system.cpu.branchPred.committed_0::DirectCond    323132581     91.72%     93.80% # Number of branches finally committed  (Count)
system.cpu.branchPred.committed_0::DirectUncond     19918479      5.65%     99.45% # Number of branches finally committed  (Count)
system.cpu.branchPred.committed_0::IndirectCond            0      0.00%     99.45% # Number of branches finally committed  (Count)
system.cpu.branchPred.committed_0::IndirectUncond      1932497      0.55%    100.00% # Number of branches finally committed  (Count)
system.cpu.branchPred.committed_0::total    352307444                       # Number of branches finally committed  (Count)
system.cpu.branchPred.mispredicted_0::NoBranch          314      0.00%      0.00% # Number of committed branches that were mispredicted. (Count)
system.cpu.branchPred.mispredicted_0::Return         1448      0.00%      0.00% # Number of committed branches that were mispredicted. (Count)
system.cpu.branchPred.mispredicted_0::CallDirect         4237      0.01%      0.01% # Number of committed branches that were mispredicted. (Count)
system.cpu.branchPred.mispredicted_0::CallIndirect          829      0.00%      0.01% # Number of committed branches that were mispredicted. (Count)
system.cpu.branchPred.mispredicted_0::DirectCond     46207348     99.83%     99.85% # Number of committed branches that were mispredicted. (Count)
system.cpu.branchPred.mispredicted_0::DirectUncond         2202      0.00%     99.85% # Number of committed branches that were mispredicted. (Count)
system.cpu.branchPred.mispredicted_0::IndirectCond            0      0.00%     99.85% # Number of committed branches that were mispredicted. (Count)
system.cpu.branchPred.mispredicted_0::IndirectUncond        68513      0.15%    100.00% # Number of committed branches that were mispredicted. (Count)
system.cpu.branchPred.mispredicted_0::total     46284891                       # Number of committed branches that were mispredicted. (Count)
system.cpu.branchPred.targetProvider_0::NoTarget    238045926     30.58%     30.58% # The component providing the target for taken branches (Count)
system.cpu.branchPred.targetProvider_0::BTB    530628558     68.17%     98.75% # The component providing the target for taken branches (Count)
system.cpu.branchPred.targetProvider_0::RAS      7129230      0.92%     99.67% # The component providing the target for taken branches (Count)
system.cpu.branchPred.targetProvider_0::Indirect      2587872      0.33%    100.00% # The component providing the target for taken branches (Count)
system.cpu.branchPred.targetProvider_0::total    778391586                       # The component providing the target for taken branches (Count)
system.cpu.branchPred.targetWrong_0::NoBranch     20125039     43.23%     43.23% # Number of branches where the target was incorrect or not available at prediction time. (Count)
system.cpu.branchPred.targetWrong_0::Return     26369512     56.64%     99.88% # Number of branches where the target was incorrect or not available at prediction time. (Count)
system.cpu.branchPred.targetWrong_0::CallDirect         1613      0.00%     99.88% # Number of branches where the target was incorrect or not available at prediction time. (Count)
system.cpu.branchPred.targetWrong_0::CallIndirect        56157      0.12%    100.00% # Number of branches where the target was incorrect or not available at prediction time. (Count)
system.cpu.branchPred.targetWrong_0::DirectCond            0      0.00%    100.00% # Number of branches where the target was incorrect or not available at prediction time. (Count)
system.cpu.branchPred.targetWrong_0::DirectUncond            0      0.00%    100.00% # Number of branches where the target was incorrect or not available at prediction time. (Count)
system.cpu.branchPred.targetWrong_0::IndirectCond            0      0.00%    100.00% # Number of branches where the target was incorrect or not available at prediction time. (Count)
system.cpu.branchPred.targetWrong_0::IndirectUncond            0      0.00%    100.00% # Number of branches where the target was incorrect or not available at prediction time. (Count)
system.cpu.branchPred.targetWrong_0::total     46552321                       # Number of branches where the target was incorrect or not available at prediction time. (Count)
system.cpu.branchPred.condPredicted         696736945                       # Number of conditional branches predicted (Count)
system.cpu.branchPred.condPredictedTaken    459982527                       # Number of conditional branches predicted as taken (Count)
system.cpu.branchPred.condIncorrect          46554853                       # Number of conditional branches incorrect (Count)
system.cpu.branchPred.predTakenBTBMiss          12389                       # Number of branches predicted taken but missed in BTB (Count)
system.cpu.branchPred.NotTakenMispredicted     20186883                       # Number branches predicted 'not taken' but turned out to be taken (Count)
system.cpu.branchPred.TakenMispredicted      26367970                       # Number branches predicted taken but are actually not taken (Count)
system.cpu.branchPred.BTBLookups            778391586                       # Number of BTB lookups (Count)
system.cpu.branchPred.BTBUpdates             20113487                       # Number of BTB updates (Count)
system.cpu.branchPred.BTBHits               744096636                       # Number of BTB hits (Count)
system.cpu.branchPred.BTBHitRatio            0.955941                       # BTB Hit Ratio (Ratio)
system.cpu.branchPred.BTBMispredicted           14761                       # Number BTB mispredictions. No target found or target wrong (Count)
system.cpu.branchPred.indirectLookups         3349391                       # Number of indirect predictor lookups. (Count)
system.cpu.branchPred.indirectHits            2587872                       # Number of indirect target hits. (Count)
system.cpu.branchPred.indirectMisses           761519                       # Number of indirect misses. (Count)
system.cpu.branchPred.indirectMispredicted            0                       # Number of mispredicted indirect branches. (Count)
system.cpu.branchPred.btb.lookups::NoBranch         2884      0.00%      0.00% # Number of BTB lookups (Count)
system.cpu.branchPred.btb.lookups::Return      7129233      0.92%      0.92% # Number of BTB lookups (Count)
system.cpu.branchPred.btb.lookups::CallDirect      6597568      0.85%      1.76% # Number of BTB lookups (Count)
system.cpu.branchPred.btb.lookups::CallIndirect         5509      0.00%      1.76% # Number of BTB lookups (Count)
system.cpu.branchPred.btb.lookups::DirectCond    696734061     89.51%     91.27% # Number of BTB lookups (Count)
system.cpu.branchPred.btb.lookups::DirectUncond     64578449      8.30%     99.57% # Number of BTB lookups (Count)
system.cpu.branchPred.btb.lookups::IndirectCond            0      0.00%     99.57% # Number of BTB lookups (Count)
system.cpu.branchPred.btb.lookups::IndirectUncond      3343882      0.43%    100.00% # Number of BTB lookups (Count)
system.cpu.branchPred.btb.lookups::total    778391586                       # Number of BTB lookups (Count)
system.cpu.branchPred.btb.misses::NoBranch          452      0.00%      0.00% # Number of BTB misses (Count)
system.cpu.branchPred.btb.misses::Return      7129231     20.79%     20.79% # Number of BTB misses (Count)
system.cpu.branchPred.btb.misses::CallDirect         7485      0.02%     20.81% # Number of BTB misses (Count)
system.cpu.branchPred.btb.misses::CallIndirect         5509      0.02%     20.83% # Number of BTB misses (Count)
system.cpu.branchPred.btb.misses::DirectCond     23803085     69.41%     90.23% # Number of BTB misses (Count)
system.cpu.branchPred.btb.misses::DirectUncond         5306      0.02%     90.25% # Number of BTB misses (Count)
system.cpu.branchPred.btb.misses::IndirectCond            0      0.00%     90.25% # Number of BTB misses (Count)
system.cpu.branchPred.btb.misses::IndirectUncond      3343882      9.75%    100.00% # Number of BTB misses (Count)
system.cpu.branchPred.btb.misses::total      34294950                       # Number of BTB misses (Count)
system.cpu.branchPred.btb.updates::NoBranch            0      0.00%      0.00% # Number of BTB updates (Count)
system.cpu.branchPred.btb.updates::Return            0      0.00%      0.00% # Number of BTB updates (Count)
system.cpu.branchPred.btb.updates::CallDirect         6234      0.03%      0.03% # Number of BTB updates (Count)
system.cpu.branchPred.btb.updates::CallIndirect            0      0.00%      0.03% # Number of BTB updates (Count)
system.cpu.branchPred.btb.updates::DirectCond     20102358     99.94%     99.98% # Number of BTB updates (Count)
system.cpu.branchPred.btb.updates::DirectUncond         4895      0.02%    100.00% # Number of BTB updates (Count)
system.cpu.branchPred.btb.updates::IndirectCond            0      0.00%    100.00% # Number of BTB updates (Count)
system.cpu.branchPred.btb.updates::IndirectUncond            0      0.00%    100.00% # Number of BTB updates (Count)
system.cpu.branchPred.btb.updates::total     20113487                       # Number of BTB updates (Count)
system.cpu.branchPred.btb.mispredict::NoBranch            0      0.00%      0.00% # Number of BTB mispredictions. No target found or target wrong. (Count)
system.cpu.branchPred.btb.mispredict::Return            0      0.00%      0.00% # Number of BTB mispredictions. No target found or target wrong. (Count)
system.cpu.branchPred.btb.mispredict::CallDirect         6234      0.03%      0.03% # Number of BTB mispredictions. No target found or target wrong. (Count)
system.cpu.branchPred.btb.mispredict::CallIndirect            0      0.00%      0.03% # Number of BTB mispredictions. No target found or target wrong. (Count)
system.cpu.branchPred.btb.mispredict::DirectCond     20102358     99.94%     99.98% # Number of BTB mispredictions. No target found or target wrong. (Count)
system.cpu.branchPred.btb.mispredict::DirectUncond         4895      0.02%    100.00% # Number of BTB mispredictions. No target found or target wrong. (Count)
system.cpu.branchPred.btb.mispredict::IndirectCond            0      0.00%    100.00% # Number of BTB mispredictions. No target found or target wrong. (Count)
system.cpu.branchPred.btb.mispredict::IndirectUncond            0      0.00%    100.00% # Number of BTB mispredictions. No target found or target wrong. (Count)
system.cpu.branchPred.btb.mispredict::total     20113487                       # Number of BTB mispredictions. No target found or target wrong. (Count)
system.cpu.branchPred.btb.power_state.pwrStateResidencyTicks::UNDEFINED 2090015053000                       # Cumulative time (in ticks) in various power states (Tick)
system.cpu.branchPred.indirectBranchPred.lookups      3349391                       # Number of lookups (Count)
system.cpu.branchPred.indirectBranchPred.hits      2587872                       # Number of hits of a tag (Count)
system.cpu.branchPred.indirectBranchPred.misses       761519                       # Number of misses (Count)
system.cpu.branchPred.indirectBranchPred.targetRecords        71227                       # Number of targets that where recorded/installed in the cache (Count)
system.cpu.branchPred.indirectBranchPred.indirectRecords      3420618                       # Number of indirect branches/calls recorded in the indirect hist (Count)
system.cpu.branchPred.indirectBranchPred.speculativeOverflows            1                       # Number of times more than the allowed capacity for speculative branches/calls where in flight and destroy the path history (Count)
system.cpu.branchPred.ras.pushes             10070525                       # Number of times a PC was pushed onto the RAS (Count)
system.cpu.branchPred.ras.pops               10070520                       # Number of times a PC was poped from the RAS (Count)
system.cpu.branchPred.ras.squashes            6408735                       # Number of times the stack operation was squashed due to wrong speculation. (Count)
system.cpu.branchPred.ras.used                3661784                       # Number of times the RAS is the provider (Count)
system.cpu.branchPred.ras.correct             3660336                       # Number of times the RAS is the provider and the prediction is correct (Count)
system.cpu.branchPred.ras.incorrect              1448                       # Number of times the RAS is the provider and the prediction is wrong (Count)
system.cpu.commit.commitSquashedInsts      1648821535                       # The number of squashed insts skipped by commit (Count)
system.cpu.commit.commitNonSpecStalls          400670                       # The number of times commit has been forced to stall to communicate backwards (Count)
system.cpu.commit.branchMispredicts          46543957                       # The number of times a branch was mispredicted (Count)
system.cpu.commit.numCommittedDist::samples   1861323787                       # Number of insts commited each cycle (Count)
system.cpu.commit.numCommittedDist::mean     1.845789                       # Number of insts commited each cycle (Count)
system.cpu.commit.numCommittedDist::stdev     2.548503                       # Number of insts commited each cycle (Count)
system.cpu.commit.numCommittedDist::underflows            0      0.00%      0.00% # Number of insts commited each cycle (Count)
system.cpu.commit.numCommittedDist::0       871414740     46.82%     46.82% # Number of insts commited each cycle (Count)
system.cpu.commit.numCommittedDist::1       376924563     20.25%     67.07% # Number of insts commited each cycle (Count)
system.cpu.commit.numCommittedDist::2        43039652      2.31%     69.38% # Number of insts commited each cycle (Count)
system.cpu.commit.numCommittedDist::3       194853694     10.47%     79.85% # Number of insts commited each cycle (Count)
system.cpu.commit.numCommittedDist::4        74757467      4.02%     83.86% # Number of insts commited each cycle (Count)
system.cpu.commit.numCommittedDist::5        38367402      2.06%     85.93% # Number of insts commited each cycle (Count)
system.cpu.commit.numCommittedDist::6        92407972      4.96%     90.89% # Number of insts commited each cycle (Count)
system.cpu.commit.numCommittedDist::7        13734892      0.74%     91.63% # Number of insts commited each cycle (Count)
system.cpu.commit.numCommittedDist::8       155823405      8.37%    100.00% # Number of insts commited each cycle (Count)
system.cpu.commit.numCommittedDist::overflows            0      0.00%    100.00% # Number of insts commited each cycle (Count)
system.cpu.commit.numCommittedDist::min_value            0                       # Number of insts commited each cycle (Count)
system.cpu.commit.numCommittedDist::max_value            8                       # Number of insts commited each cycle (Count)
system.cpu.commit.numCommittedDist::total   1861323787                       # Number of insts commited each cycle (Count)
system.cpu.commit.amos                              0                       # Number of atomic instructions committed (Count)
system.cpu.commit.membars                      266092                       # Number of memory barriers committed (Count)
system.cpu.commit.functionCalls               3661789                       # Number of function calls committed. (Count)
system.cpu.commit.committedInstType_0::No_OpClass     24870854      0.72%      0.72% # Class of committed instruction (Count)
system.cpu.commit.committedInstType_0::IntAlu   2459508814     71.59%     72.31% # Class of committed instruction (Count)
system.cpu.commit.committedInstType_0::IntMult      1040635      0.03%     72.34% # Class of committed instruction (Count)
system.cpu.commit.committedInstType_0::IntDiv        44663      0.00%     72.34% # Class of committed instruction (Count)
system.cpu.commit.committedInstType_0::FloatAdd    168180957      4.90%     77.24% # Class of committed instruction (Count)
system.cpu.commit.committedInstType_0::FloatCmp            0      0.00%     77.24% # Class of committed instruction (Count)
system.cpu.commit.committedInstType_0::FloatCvt         1472      0.00%     77.24% # Class of committed instruction (Count)
system.cpu.commit.committedInstType_0::FloatMult            0      0.00%     77.24% # Class of committed instruction (Count)
system.cpu.commit.committedInstType_0::FloatMultAcc            0      0.00%     77.24% # Class of committed instruction (Count)
system.cpu.commit.committedInstType_0::FloatDiv            0      0.00%     77.24% # Class of committed instruction (Count)
system.cpu.commit.committedInstType_0::FloatMisc            0      0.00%     77.24% # Class of committed instruction (Count)
system.cpu.commit.committedInstType_0::FloatSqrt            0      0.00%     77.24% # Class of committed instruction (Count)
system.cpu.commit.committedInstType_0::SimdAdd         6894      0.00%     77.24% # Class of committed instruction (Count)
system.cpu.commit.committedInstType_0::SimdAddAcc            0      0.00%     77.24% # Class of committed instruction (Count)
system.cpu.commit.committedInstType_0::SimdAlu      1049037      0.03%     77.27% # Class of committed instruction (Count)
system.cpu.commit.committedInstType_0::SimdCmp            6      0.00%     77.27% # Class of committed instruction (Count)
system.cpu.commit.committedInstType_0::SimdCvt        73936      0.00%     77.27% # Class of committed instruction (Count)
system.cpu.commit.committedInstType_0::SimdMisc     11189041      0.33%     77.60% # Class of committed instruction (Count)
system.cpu.commit.committedInstType_0::SimdMult            0      0.00%     77.60% # Class of committed instruction (Count)
system.cpu.commit.committedInstType_0::SimdMultAcc            0      0.00%     77.60% # Class of committed instruction (Count)
system.cpu.commit.committedInstType_0::SimdMatMultAcc            0      0.00%     77.60% # Class of committed instruction (Count)
system.cpu.commit.committedInstType_0::SimdShift         1859      0.00%     77.60% # Class of committed instruction (Count)
system.cpu.commit.committedInstType_0::SimdShiftAcc            0      0.00%     77.60% # Class of committed instruction (Count)
system.cpu.commit.committedInstType_0::SimdDiv            0      0.00%     77.60% # Class of committed instruction (Count)
system.cpu.commit.committedInstType_0::SimdSqrt            0      0.00%     77.60% # Class of committed instruction (Count)
system.cpu.commit.committedInstType_0::SimdFloatAdd          367      0.00%     77.60% # Class of committed instruction (Count)
system.cpu.commit.committedInstType_0::SimdFloatAlu            0      0.00%     77.60% # Class of committed instruction (Count)
system.cpu.commit.committedInstType_0::SimdFloatCmp            0      0.00%     77.60% # Class of committed instruction (Count)
system.cpu.commit.committedInstType_0::SimdFloatCvt    207455848      6.04%     83.64% # Class of committed instruction (Count)
system.cpu.commit.committedInstType_0::SimdFloatDiv       100345      0.00%     83.64% # Class of committed instruction (Count)
system.cpu.commit.committedInstType_0::SimdFloatMisc            0      0.00%     83.64% # Class of committed instruction (Count)
system.cpu.commit.committedInstType_0::SimdFloatMult           11      0.00%     83.64% # Class of committed instruction (Count)
system.cpu.commit.committedInstType_0::SimdFloatMultAcc            0      0.00%     83.64% # Class of committed instruction (Count)
system.cpu.commit.committedInstType_0::SimdFloatMatMultAcc            0      0.00%     83.64% # Class of committed instruction (Count)
system.cpu.commit.committedInstType_0::SimdFloatSqrt            0      0.00%     83.64% # Class of committed instruction (Count)
system.cpu.commit.committedInstType_0::SimdReduceAdd            0      0.00%     83.64% # Class of committed instruction (Count)
system.cpu.commit.committedInstType_0::SimdReduceAlu            0      0.00%     83.64% # Class of committed instruction (Count)
system.cpu.commit.committedInstType_0::SimdReduceCmp            0      0.00%     83.64% # Class of committed instruction (Count)
system.cpu.commit.committedInstType_0::SimdFloatReduceAdd            0      0.00%     83.64% # Class of committed instruction (Count)
system.cpu.commit.committedInstType_0::SimdFloatReduceCmp            0      0.00%     83.64% # Class of committed instruction (Count)
system.cpu.commit.committedInstType_0::SimdAes            0      0.00%     83.64% # Class of committed instruction (Count)
system.cpu.commit.committedInstType_0::SimdAesMix            0      0.00%     83.64% # Class of committed instruction (Count)
system.cpu.commit.committedInstType_0::SimdSha1Hash            0      0.00%     83.64% # Class of committed instruction (Count)
system.cpu.commit.committedInstType_0::SimdSha1Hash2            0      0.00%     83.64% # Class of committed instruction (Count)
system.cpu.commit.committedInstType_0::SimdSha256Hash            0      0.00%     83.64% # Class of committed instruction (Count)
system.cpu.commit.committedInstType_0::SimdSha256Hash2            0      0.00%     83.64% # Class of committed instruction (Count)
system.cpu.commit.committedInstType_0::SimdShaSigma2            0      0.00%     83.64% # Class of committed instruction (Count)
system.cpu.commit.committedInstType_0::SimdShaSigma3            0      0.00%     83.64% # Class of committed instruction (Count)
system.cpu.commit.committedInstType_0::SimdPredAlu            0      0.00%     83.64% # Class of committed instruction (Count)
system.cpu.commit.committedInstType_0::Matrix            0      0.00%     83.64% # Class of committed instruction (Count)
system.cpu.commit.committedInstType_0::MatrixMov            0      0.00%     83.64% # Class of committed instruction (Count)
system.cpu.commit.committedInstType_0::MatrixOP            0      0.00%     83.64% # Class of committed instruction (Count)
system.cpu.commit.committedInstType_0::MemRead    131588869      3.83%     87.47% # Class of committed instruction (Count)
system.cpu.commit.committedInstType_0::MemWrite     66632229      1.94%     89.41% # Class of committed instruction (Count)
system.cpu.commit.committedInstType_0::FloatMemRead    268430924      7.81%     97.22% # Class of committed instruction (Count)
system.cpu.commit.committedInstType_0::FloatMemWrite     95434382      2.78%    100.00% # Class of committed instruction (Count)
system.cpu.commit.committedInstType_0::IprAccess            0      0.00%    100.00% # Class of committed instruction (Count)
system.cpu.commit.committedInstType_0::InstPrefetch            0      0.00%    100.00% # Class of committed instruction (Count)
system.cpu.commit.committedInstType_0::SimdUnitStrideLoad            0      0.00%    100.00% # Class of committed instruction (Count)
system.cpu.commit.committedInstType_0::SimdUnitStrideStore            0      0.00%    100.00% # Class of committed instruction (Count)
system.cpu.commit.committedInstType_0::SimdUnitStrideMaskLoad            0      0.00%    100.00% # Class of committed instruction (Count)
system.cpu.commit.committedInstType_0::SimdUnitStrideMaskStore            0      0.00%    100.00% # Class of committed instruction (Count)
system.cpu.commit.committedInstType_0::SimdStridedLoad            0      0.00%    100.00% # Class of committed instruction (Count)
system.cpu.commit.committedInstType_0::SimdStridedStore            0      0.00%    100.00% # Class of committed instruction (Count)
system.cpu.commit.committedInstType_0::SimdIndexedLoad            0      0.00%    100.00% # Class of committed instruction (Count)
system.cpu.commit.committedInstType_0::SimdIndexedStore            0      0.00%    100.00% # Class of committed instruction (Count)
system.cpu.commit.committedInstType_0::SimdWholeRegisterLoad            0      0.00%    100.00% # Class of committed instruction (Count)
system.cpu.commit.committedInstType_0::SimdWholeRegisterStore            0      0.00%    100.00% # Class of committed instruction (Count)
system.cpu.commit.committedInstType_0::SimdUnitStrideFaultOnlyFirstLoad            0      0.00%    100.00% # Class of committed instruction (Count)
system.cpu.commit.committedInstType_0::SimdUnitStrideSegmentedLoad            0      0.00%    100.00% # Class of committed instruction (Count)
system.cpu.commit.committedInstType_0::SimdUnitStrideSegmentedStore            0      0.00%    100.00% # Class of committed instruction (Count)
system.cpu.commit.committedInstType_0::SimdExt            0      0.00%    100.00% # Class of committed instruction (Count)
system.cpu.commit.committedInstType_0::SimdFloatExt            0      0.00%    100.00% # Class of committed instruction (Count)
system.cpu.commit.committedInstType_0::SimdConfig            0      0.00%    100.00% # Class of committed instruction (Count)
system.cpu.commit.committedInstType_0::total   3435611143                       # Class of committed instruction (Count)
system.cpu.commit.commitEligibleSamples     155823405                       # number cycles where commit BW limit reached (Cycle)
system.cpu.commitStats0.numInsts           1956594446                       # Number of instructions committed (thread level) (Count)
system.cpu.commitStats0.numOps             3435611143                       # Number of ops (including micro ops) committed (thread level) (Count)
system.cpu.commitStats0.numInstsNotNOP     1956594446                       # Number of instructions committed excluding NOPs or prefetches (Count)
system.cpu.commitStats0.numOpsNotNOP       3435611143                       # Number of Ops (including micro ops) Simulated (Count)
system.cpu.commitStats0.cpi                  1.068190                       # CPI: cycles per instruction (thread level) ((Cycle/Count))
system.cpu.commitStats0.ipc                  0.936163                       # IPC: instructions per cycle (thread level) ((Count/Cycle))
system.cpu.commitStats0.numMemRefs          562086404                       # Number of memory references committed (Count)
system.cpu.commitStats0.numFpInsts          760988042                       # Number of float instructions (Count)
system.cpu.commitStats0.numIntInsts        3007485011                       # Number of integer instructions (Count)
system.cpu.commitStats0.numLoadInsts        400019793                       # Number of load instructions (Count)
system.cpu.commitStats0.numStoreInsts       162066611                       # Number of store instructions (Count)
system.cpu.commitStats0.numVecInsts                 0                       # Number of vector instructions (Count)
system.cpu.commitStats0.committedInstType::No_OpClass     24870854      0.72%      0.72% # Class of committed instruction. (Count)
system.cpu.commitStats0.committedInstType::IntAlu   2459508814     71.59%     72.31% # Class of committed instruction. (Count)
system.cpu.commitStats0.committedInstType::IntMult      1040635      0.03%     72.34% # Class of committed instruction. (Count)
system.cpu.commitStats0.committedInstType::IntDiv        44663      0.00%     72.34% # Class of committed instruction. (Count)
system.cpu.commitStats0.committedInstType::FloatAdd    168180957      4.90%     77.24% # Class of committed instruction. (Count)
system.cpu.commitStats0.committedInstType::FloatCmp            0      0.00%     77.24% # Class of committed instruction. (Count)
system.cpu.commitStats0.committedInstType::FloatCvt         1472      0.00%     77.24% # Class of committed instruction. (Count)
system.cpu.commitStats0.committedInstType::FloatMult            0      0.00%     77.24% # Class of committed instruction. (Count)
system.cpu.commitStats0.committedInstType::FloatMultAcc            0      0.00%     77.24% # Class of committed instruction. (Count)
system.cpu.commitStats0.committedInstType::FloatDiv            0      0.00%     77.24% # Class of committed instruction. (Count)
system.cpu.commitStats0.committedInstType::FloatMisc            0      0.00%     77.24% # Class of committed instruction. (Count)
system.cpu.commitStats0.committedInstType::FloatSqrt            0      0.00%     77.24% # Class of committed instruction. (Count)
system.cpu.commitStats0.committedInstType::SimdAdd         6894      0.00%     77.24% # Class of committed instruction. (Count)
system.cpu.commitStats0.committedInstType::SimdAddAcc            0      0.00%     77.24% # Class of committed instruction. (Count)
system.cpu.commitStats0.committedInstType::SimdAlu      1049037      0.03%     77.27% # Class of committed instruction. (Count)
system.cpu.commitStats0.committedInstType::SimdCmp            6      0.00%     77.27% # Class of committed instruction. (Count)
system.cpu.commitStats0.committedInstType::SimdCvt        73936      0.00%     77.27% # Class of committed instruction. (Count)
system.cpu.commitStats0.committedInstType::SimdMisc     11189041      0.33%     77.60% # Class of committed instruction. (Count)
system.cpu.commitStats0.committedInstType::SimdMult            0      0.00%     77.60% # Class of committed instruction. (Count)
system.cpu.commitStats0.committedInstType::SimdMultAcc            0      0.00%     77.60% # Class of committed instruction. (Count)
system.cpu.commitStats0.committedInstType::SimdMatMultAcc            0      0.00%     77.60% # Class of committed instruction. (Count)
system.cpu.commitStats0.committedInstType::SimdShift         1859      0.00%     77.60% # Class of committed instruction. (Count)
system.cpu.commitStats0.committedInstType::SimdShiftAcc            0      0.00%     77.60% # Class of committed instruction. (Count)
system.cpu.commitStats0.committedInstType::SimdDiv            0      0.00%     77.60% # Class of committed instruction. (Count)
system.cpu.commitStats0.committedInstType::SimdSqrt            0      0.00%     77.60% # Class of committed instruction. (Count)
system.cpu.commitStats0.committedInstType::SimdFloatAdd          367      0.00%     77.60% # Class of committed instruction. (Count)
system.cpu.commitStats0.committedInstType::SimdFloatAlu            0      0.00%     77.60% # Class of committed instruction. (Count)
system.cpu.commitStats0.committedInstType::SimdFloatCmp            0      0.00%     77.60% # Class of committed instruction. (Count)
system.cpu.commitStats0.committedInstType::SimdFloatCvt    207455848      6.04%     83.64% # Class of committed instruction. (Count)
system.cpu.commitStats0.committedInstType::SimdFloatDiv       100345      0.00%     83.64% # Class of committed instruction. (Count)
system.cpu.commitStats0.committedInstType::SimdFloatMisc            0      0.00%     83.64% # Class of committed instruction. (Count)
system.cpu.commitStats0.committedInstType::SimdFloatMult           11      0.00%     83.64% # Class of committed instruction. (Count)
system.cpu.commitStats0.committedInstType::SimdFloatMultAcc            0      0.00%     83.64% # Class of committed instruction. (Count)
system.cpu.commitStats0.committedInstType::SimdFloatMatMultAcc            0      0.00%     83.64% # Class of committed instruction. (Count)
system.cpu.commitStats0.committedInstType::SimdFloatSqrt            0      0.00%     83.64% # Class of committed instruction. (Count)
system.cpu.commitStats0.committedInstType::SimdReduceAdd            0      0.00%     83.64% # Class of committed instruction. (Count)
system.cpu.commitStats0.committedInstType::SimdReduceAlu            0      0.00%     83.64% # Class of committed instruction. (Count)
system.cpu.commitStats0.committedInstType::SimdReduceCmp            0      0.00%     83.64% # Class of committed instruction. (Count)
system.cpu.commitStats0.committedInstType::SimdFloatReduceAdd            0      0.00%     83.64% # Class of committed instruction. (Count)
system.cpu.commitStats0.committedInstType::SimdFloatReduceCmp            0      0.00%     83.64% # Class of committed instruction. (Count)
system.cpu.commitStats0.committedInstType::SimdAes            0      0.00%     83.64% # Class of committed instruction. (Count)
system.cpu.commitStats0.committedInstType::SimdAesMix            0      0.00%     83.64% # Class of committed instruction. (Count)
system.cpu.commitStats0.committedInstType::SimdSha1Hash            0      0.00%     83.64% # Class of committed instruction. (Count)
system.cpu.commitStats0.committedInstType::SimdSha1Hash2            0      0.00%     83.64% # Class of committed instruction. (Count)
system.cpu.commitStats0.committedInstType::SimdSha256Hash            0      0.00%     83.64% # Class of committed instruction. (Count)
system.cpu.commitStats0.committedInstType::SimdSha256Hash2            0      0.00%     83.64% # Class of committed instruction. (Count)
system.cpu.commitStats0.committedInstType::SimdShaSigma2            0      0.00%     83.64% # Class of committed instruction. (Count)
system.cpu.commitStats0.committedInstType::SimdShaSigma3            0      0.00%     83.64% # Class of committed instruction. (Count)
system.cpu.commitStats0.committedInstType::SimdPredAlu            0      0.00%     83.64% # Class of committed instruction. (Count)
system.cpu.commitStats0.committedInstType::Matrix            0      0.00%     83.64% # Class of committed instruction. (Count)
system.cpu.commitStats0.committedInstType::MatrixMov            0      0.00%     83.64% # Class of committed instruction. (Count)
system.cpu.commitStats0.committedInstType::MatrixOP            0      0.00%     83.64% # Class of committed instruction. (Count)
system.cpu.commitStats0.committedInstType::MemRead    131588869      3.83%     87.47% # Class of committed instruction. (Count)
system.cpu.commitStats0.committedInstType::MemWrite     66632229      1.94%     89.41% # Class of committed instruction. (Count)
system.cpu.commitStats0.committedInstType::FloatMemRead    268430924      7.81%     97.22% # Class of committed instruction. (Count)
system.cpu.commitStats0.committedInstType::FloatMemWrite     95434382      2.78%    100.00% # Class of committed instruction. (Count)
system.cpu.commitStats0.committedInstType::IprAccess            0      0.00%    100.00% # Class of committed instruction. (Count)
system.cpu.commitStats0.committedInstType::InstPrefetch            0      0.00%    100.00% # Class of committed instruction. (Count)
system.cpu.commitStats0.committedInstType::SimdUnitStrideLoad            0      0.00%    100.00% # Class of committed instruction. (Count)
system.cpu.commitStats0.committedInstType::SimdUnitStrideStore            0      0.00%    100.00% # Class of committed instruction. (Count)
system.cpu.commitStats0.committedInstType::SimdUnitStrideMaskLoad            0      0.00%    100.00% # Class of committed instruction. (Count)
system.cpu.commitStats0.committedInstType::SimdUnitStrideMaskStore            0      0.00%    100.00% # Class of committed instruction. (Count)
system.cpu.commitStats0.committedInstType::SimdStridedLoad            0      0.00%    100.00% # Class of committed instruction. (Count)
system.cpu.commitStats0.committedInstType::SimdStridedStore            0      0.00%    100.00% # Class of committed instruction. (Count)
system.cpu.commitStats0.committedInstType::SimdIndexedLoad            0      0.00%    100.00% # Class of committed instruction. (Count)
system.cpu.commitStats0.committedInstType::SimdIndexedStore            0      0.00%    100.00% # Class of committed instruction. (Count)
system.cpu.commitStats0.committedInstType::SimdWholeRegisterLoad            0      0.00%    100.00% # Class of committed instruction. (Count)
system.cpu.commitStats0.committedInstType::SimdWholeRegisterStore            0      0.00%    100.00% # Class of committed instruction. (Count)
system.cpu.commitStats0.committedInstType::SimdUnitStrideFaultOnlyFirstLoad            0      0.00%    100.00% # Class of committed instruction. (Count)
system.cpu.commitStats0.committedInstType::SimdUnitStrideSegmentedLoad            0      0.00%    100.00% # Class of committed instruction. (Count)
system.cpu.commitStats0.committedInstType::SimdUnitStrideSegmentedStore            0      0.00%    100.00% # Class of committed instruction. (Count)
system.cpu.commitStats0.committedInstType::SimdExt            0      0.00%    100.00% # Class of committed instruction. (Count)
system.cpu.commitStats0.committedInstType::SimdFloatExt            0      0.00%    100.00% # Class of committed instruction. (Count)
system.cpu.commitStats0.committedInstType::SimdConfig            0      0.00%    100.00% # Class of committed instruction. (Count)
system.cpu.commitStats0.committedInstType::total   3435611143                       # Class of committed instruction. (Count)
system.cpu.commitStats0.committedControl::IsControl    352307444                       # Class of control type instructions committed (Count)
system.cpu.commitStats0.committedControl::IsDirectControl    346708466                       # Class of control type instructions committed (Count)
system.cpu.commitStats0.committedControl::IsIndirectControl      5598664                       # Class of control type instructions committed (Count)
system.cpu.commitStats0.committedControl::IsCondControl    323132581                       # Class of control type instructions committed (Count)
system.cpu.commitStats0.committedControl::IsUncondControl     29174549                       # Class of control type instructions committed (Count)
system.cpu.commitStats0.committedControl::IsCall      3661789                       # Class of control type instructions committed (Count)
system.cpu.commitStats0.committedControl::IsReturn      3661784                       # Class of control type instructions committed (Count)
system.cpu.decode.idleCycles                195528502                       # Number of cycles decode is idle (Cycle)
system.cpu.decode.blockedCycles            1026198150                       # Number of cycles decode is blocked (Cycle)
system.cpu.decode.runCycles                 541524877                       # Number of cycles decode is running (Cycle)
system.cpu.decode.unblockCycles             273028711                       # Number of cycles decode is unblocking (Cycle)
system.cpu.decode.squashCycles               46642691                       # Number of cycles decode is squashing (Cycle)
system.cpu.decode.branchResolved            460540594                       # Number of times decode resolved a branch (Count)
system.cpu.decode.branchMispred                 12107                       # Number of times decode detected a branch misprediction (Count)
system.cpu.decode.decodedInsts             6120352165                       # Number of instructions handled by decode (Count)
system.cpu.decode.squashedInsts                 56918                       # Number of squashed instructions handled by decode (Count)
system.cpu.executeStats0.numInsts          4529301451                       # Number of executed instructions (Count)
system.cpu.executeStats0.numNop                     0                       # Number of nop insts executed (Count)
system.cpu.executeStats0.numBranches        429024588                       # Number of branches executed (Count)
system.cpu.executeStats0.numLoadInsts       514705714                       # Number of load instructions executed (Count)
system.cpu.executeStats0.numStoreInsts      219495631                       # Number of stores executed (Count)
system.cpu.executeStats0.instRate            2.167114                       # Inst execution rate ((Count/Cycle))
system.cpu.executeStats0.numCCRegReads     3467894293                       # Number of times the CC registers were read (Count)
system.cpu.executeStats0.numCCRegWrites    2075319927                       # Number of times the CC registers were written (Count)
system.cpu.executeStats0.numFpRegReads      748256650                       # Number of times the floating registers were read (Count)
system.cpu.executeStats0.numFpRegWrites     704478246                       # Number of times the floating registers were written (Count)
system.cpu.executeStats0.numIntRegReads    4463511565                       # Number of times the integer registers were read (Count)
system.cpu.executeStats0.numIntRegWrites   2626416603                       # Number of times the integer registers were written (Count)
system.cpu.executeStats0.numMemRefs         734201345                       # Number of memory refs (Count)
system.cpu.executeStats0.numMiscRegReads   1666478888                       # Number of times the Misc registers were read (Count)
system.cpu.executeStats0.numMiscRegWrites          828                       # Number of times the Misc registers were written (Count)
system.cpu.executeStats0.numVecAluAccesses            0                       # Number of vector alu accesses (Count)
system.cpu.executeStats0.numDiscardedOps            0                       # Number of ops (including micro ops) which were discarded before commit (Count)
system.cpu.fetch.predictedBranches          540345660                       # Number of branches that fetch has predicted taken (Count)
system.cpu.fetch.cycles                    2002919090                       # Number of cycles fetch has run and was not squashing or blocked (Cycle)
system.cpu.fetch.squashCycles                93308856                       # Number of cycles fetch has spent squashing (Cycle)
system.cpu.fetch.miscStallCycles                  903                       # Number of cycles fetch has spent waiting on interrupts, or bad addresses, or out of MSHRs (Cycle)
system.cpu.fetch.pendingTrapStallCycles          6682                       # Number of stall cycles due to pending traps (Cycle)
system.cpu.fetch.cacheLines                 304171858                       # Number of cache lines fetched (Count)
[...]
system.mem_ctrl.dram.bytesWritten::total      3295488                       # Number of bytes written to this memory (Byte)
system.mem_ctrl.dram.numReads::cpu.inst          1133                       # Number of read requests responded to by this memory (Count)
system.mem_ctrl.dram.numReads::cpu.data         77489                       # Number of read requests responded to by this memory (Count)
system.mem_ctrl.dram.numReads::total            78622                       # Number of read requests responded to by this memory (Count)
system.mem_ctrl.dram.numWrites::writebacks        51492                       # Number of write requests responded to by this memory (Count)
system.mem_ctrl.dram.numWrites::total           51492                       # Number of write requests responded to by this memory (Count)
system.mem_ctrl.dram.bwRead::cpu.inst         6931765                       # Total read bandwidth from this memory ((Byte/Second))
system.mem_ctrl.dram.bwRead::cpu.data       474082549                       # Total read bandwidth from this memory ((Byte/Second))
system.mem_ctrl.dram.bwRead::total          481014314                       # Total read bandwidth from this memory ((Byte/Second))
system.mem_ctrl.dram.bwInstRead::cpu.inst      6931765                       # Instruction read bandwidth from this memory ((Byte/Second))
system.mem_ctrl.dram.bwInstRead::total        6931765                       # Instruction read bandwidth from this memory ((Byte/Second))
system.mem_ctrl.dram.bwWrite::writebacks    315031277                       # Write bandwidth from this memory ((Byte/Second))
system.mem_ctrl.dram.bwWrite::total         315031277                       # Write bandwidth from this memory ((Byte/Second))
system.mem_ctrl.dram.bwTotal::writebacks    315031277                       # Total bandwidth to/from this memory ((Byte/Second))
system.mem_ctrl.dram.bwTotal::cpu.inst        6931765                       # Total bandwidth to/from this memory ((Byte/Second))
system.mem_ctrl.dram.bwTotal::cpu.data      474082549                       # Total bandwidth to/from this memory ((Byte/Second))
system.mem_ctrl.dram.bwTotal::total         796045590                       # Total bandwidth to/from this memory ((Byte/Second))
system.mem_ctrl.dram.readBursts                 78538                       # Number of DRAM read bursts (Count)
system.mem_ctrl.dram.writeBursts                51498                       # Number of DRAM write bursts (Count)
system.mem_ctrl.dram.perBankRdBursts::0          4793                       # Per bank write bursts (Count)
system.mem_ctrl.dram.perBankRdBursts::1          4703                       # Per bank write bursts (Count)
system.mem_ctrl.dram.perBankRdBursts::2          4783                       # Per bank write bursts (Count)
system.mem_ctrl.dram.perBankRdBursts::3          4698                       # Per bank write bursts (Count)
system.mem_ctrl.dram.perBankRdBursts::4          4743                       # Per bank write bursts (Count)
system.mem_ctrl.dram.perBankRdBursts::5          5078                       # Per bank write bursts (Count)
system.mem_ctrl.dram.perBankRdBursts::6          4836                       # Per bank write bursts (Count)
system.mem_ctrl.dram.perBankRdBursts::7          5647                       # Per bank write bursts (Count)
system.mem_ctrl.dram.perBankRdBursts::8          4796                       # Per bank write bursts (Count)
system.mem_ctrl.dram.perBankRdBursts::9          4712                       # Per bank write bursts (Count)
system.mem_ctrl.dram.perBankRdBursts::10         4939                       # Per bank write bursts (Count)
system.mem_ctrl.dram.perBankRdBursts::11         5037                       # Per bank write bursts (Count)
system.mem_ctrl.dram.perBankRdBursts::12         5134                       # Per bank write bursts (Count)
system.mem_ctrl.dram.perBankRdBursts::13         4954                       # Per bank write bursts (Count)
system.mem_ctrl.dram.perBankRdBursts::14         4830                       # Per bank write bursts (Count)
system.mem_ctrl.dram.perBankRdBursts::15         4855                       # Per bank write bursts (Count)
system.mem_ctrl.dram.perBankWrBursts::0          3186                       # Per bank write bursts (Count)
system.mem_ctrl.dram.perBankWrBursts::1          3074                       # Per bank write bursts (Count)
system.mem_ctrl.dram.perBankWrBursts::2          3119                       # Per bank write bursts (Count)
system.mem_ctrl.dram.perBankWrBursts::3          3078                       # Per bank write bursts (Count)
system.mem_ctrl.dram.perBankWrBursts::4          3073                       # Per bank write bursts (Count)
system.mem_ctrl.dram.perBankWrBursts::5          3181                       # Per bank write bursts (Count)
system.mem_ctrl.dram.perBankWrBursts::6          3123                       # Per bank write bursts (Count)
system.mem_ctrl.dram.perBankWrBursts::7          3869                       # Per bank write bursts (Count)
system.mem_ctrl.dram.perBankWrBursts::8          3163                       # Per bank write bursts (Count)
system.mem_ctrl.dram.perBankWrBursts::9          3077                       # Per bank write bursts (Count)
system.mem_ctrl.dram.perBankWrBursts::10         3282                       # Per bank write bursts (Count)
system.mem_ctrl.dram.perBankWrBursts::11         3230                       # Per bank write bursts (Count)
system.mem_ctrl.dram.perBankWrBursts::12         3409                       # Per bank write bursts (Count)
system.mem_ctrl.dram.perBankWrBursts::13         3206                       # Per bank write bursts (Count)
system.mem_ctrl.dram.perBankWrBursts::14         3225                       # Per bank write bursts (Count)
system.mem_ctrl.dram.perBankWrBursts::15         3203                       # Per bank write bursts (Count)
system.mem_ctrl.dram.totQLat                721337250                       # Total ticks spent queuing (Tick)
system.mem_ctrl.dram.totBusLat              392690000                       # Total ticks spent in databus transfers (Tick)
system.mem_ctrl.dram.totMemAccLat          2193924750                       # Total ticks spent from burst creation until serviced by the DRAM (Tick)
system.mem_ctrl.dram.avgQLat                  9184.56                       # Average queueing delay per DRAM burst ((Tick/Count))
system.mem_ctrl.dram.avgBusLat                5000.00                       # Average bus latency per DRAM burst ((Tick/Count))
system.mem_ctrl.dram.avgMemAccLat            27934.56                       # Average memory access latency per DRAM burst ((Tick/Count))
system.mem_ctrl.dram.readRowHits                68234                       # Number of row buffer hits during reads (Count)
system.mem_ctrl.dram.writeRowHits               46543                       # Number of row buffer hits during writes (Count)
system.mem_ctrl.dram.readRowHitRate             86.88                       # Row buffer hit rate for reads (Ratio)
system.mem_ctrl.dram.writeRowHitRate            90.38                       # Row buffer hit rate for writes (Ratio)
system.mem_ctrl.dram.bytesPerActivate::samples        15263                       # Bytes accessed per row activation (Byte)
system.mem_ctrl.dram.bytesPerActivate::mean   545.318745                       # Bytes accessed per row activation (Byte)
system.mem_ctrl.dram.bytesPerActivate::gmean   345.754375                       # Bytes accessed per row activation (Byte)
system.mem_ctrl.dram.bytesPerActivate::stdev   411.967600                       # Bytes accessed per row activation (Byte)
system.mem_ctrl.dram.bytesPerActivate::0-127         2538     16.63%     16.63% # Bytes accessed per row activation (Byte)
system.mem_ctrl.dram.bytesPerActivate::128-255         3075     20.15%     36.78% # Bytes accessed per row activation (Byte)
system.mem_ctrl.dram.bytesPerActivate::256-383         1567     10.27%     47.04% # Bytes accessed per row activation (Byte)
system.mem_ctrl.dram.bytesPerActivate::384-511          594      3.89%     50.93% # Bytes accessed per row activation (Byte)
system.mem_ctrl.dram.bytesPerActivate::512-639          798      5.23%     56.16% # Bytes accessed per row activation (Byte)
system.mem_ctrl.dram.bytesPerActivate::640-767          352      2.31%     58.47% # Bytes accessed per row activation (Byte)
system.mem_ctrl.dram.bytesPerActivate::768-895          364      2.38%     60.85% # Bytes accessed per row activation (Byte)
system.mem_ctrl.dram.bytesPerActivate::896-1023          374      2.45%     63.30% # Bytes accessed per row activation (Byte)
system.mem_ctrl.dram.bytesPerActivate::1024-1151         5601     36.70%    100.00% # Bytes accessed per row activation (Byte)
system.mem_ctrl.dram.bytesPerActivate::total        15263                       # Bytes accessed per row activation (Byte)
system.mem_ctrl.dram.dramBytesRead            5026432                       # Total bytes read (Byte)
system.mem_ctrl.dram.dramBytesWritten         3295872                       # Total bytes written (Byte)
system.mem_ctrl.dram.avgRdBW               480.500396                       # Average DRAM read bandwidth in MiBytes/s ((Byte/Second))
system.mem_ctrl.dram.avgWrBW               315.067985                       # Average DRAM write bandwidth in MiBytes/s ((Byte/Second))
system.mem_ctrl.dram.peakBW                  12800.00                       # Theoretical peak bandwidth in MiByte/s ((Byte/Second))
system.mem_ctrl.dram.busUtil                     6.22                       # Data bus utilization in percentage (Ratio)
system.mem_ctrl.dram.busUtilRead                 3.75                       # Data bus utilization in percentage for reads (Ratio)
system.mem_ctrl.dram.busUtilWrite                2.46                       # Data bus utilization in percentage for writes (Ratio)
system.mem_ctrl.dram.pageHitRate                88.27                       # Row buffer hit rate, read and write combined (Ratio)
system.mem_ctrl.dram.power_state.pwrStateResidencyTicks::UNDEFINED  10460828000                       # Cumulative time (in ticks) in various power states (Tick)
system.mem_ctrl.dram.rank0.actEnergy         55056540                       # Energy for activate commands per rank (pJ) (Joule)
system.mem_ctrl.dram.rank0.preEnergy         29267040                       # Energy for precharge commands per rank (pJ) (Joule)
system.mem_ctrl.dram.rank0.readEnergy       280466340                       # Energy for read commands per rank (pJ) (Joule)
system.mem_ctrl.dram.rank0.writeEnergy      134169660                       # Energy for write commands per rank (pJ) (Joule)
system.mem_ctrl.dram.rank0.refreshEnergy 826076160.000000                       # Energy for refresh commands per rank (pJ) (Joule)
system.mem_ctrl.dram.rank0.actBackEnergy   3893759490                       # Energy for active background per rank (pJ) (Joule)
system.mem_ctrl.dram.rank0.preBackEnergy    738002400                       # Energy for precharge background per rank (pJ) (Joule)
system.mem_ctrl.dram.rank0.actPowerDownEnergy            0                       # Energy for active power-down per rank (pJ) (Joule)
system.mem_ctrl.dram.rank0.prePowerDownEnergy            0                       # Energy for precharge power-down per rank (pJ) (Joule)
system.mem_ctrl.dram.rank0.selfRefreshEnergy            0                       # Energy for self refresh per rank (pJ) (Joule)
system.mem_ctrl.dram.rank0.totalEnergy     5956797630                       # Total energy per rank (pJ) (Joule)
system.mem_ctrl.dram.rank0.averagePower    569.438445                       # Core power per rank (mW) (Watt)
system.mem_ctrl.dram.rank0.totalIdleTime            0                       # Total Idle time Per DRAM Rank (Tick)
system.mem_ctrl.dram.rank0.pwrStateTime::IDLE   1871893250                       # Time in different power states (Tick)
system.mem_ctrl.dram.rank0.pwrStateTime::REF    349440000                       # Time in different power states (Tick)
system.mem_ctrl.dram.rank0.pwrStateTime::SREF            0                       # Time in different power states (Tick)
system.mem_ctrl.dram.rank0.pwrStateTime::PRE_PDN            0                       # Time in different power states (Tick)
system.mem_ctrl.dram.rank0.pwrStateTime::ACT   8239494750                       # Time in different power states (Tick)
system.mem_ctrl.dram.rank0.pwrStateTime::ACT_PDN            0                       # Time in different power states (Tick)
system.mem_ctrl.dram.rank1.actEnergy         53892720                       # Energy for activate commands per rank (pJ) (Joule)
system.mem_ctrl.dram.rank1.preEnergy         28656045                       # Energy for precharge commands per rank (pJ) (Joule)
system.mem_ctrl.dram.rank1.readEnergy       280294980                       # Energy for read commands per rank (pJ) (Joule)
system.mem_ctrl.dram.rank1.writeEnergy      134649900                       # Energy for write commands per rank (pJ) (Joule)
system.mem_ctrl.dram.rank1.refreshEnergy 826076160.000000                       # Energy for refresh commands per rank (pJ) (Joule)
system.mem_ctrl.dram.rank1.actBackEnergy   3907983270                       # Energy for active background per rank (pJ) (Joule)
system.mem_ctrl.dram.rank1.preBackEnergy    726024480                       # Energy for precharge background per rank (pJ) (Joule)
system.mem_ctrl.dram.rank1.actPowerDownEnergy            0                       # Energy for active power-down per rank (pJ) (Joule)
system.mem_ctrl.dram.rank1.prePowerDownEnergy            0                       # Energy for precharge power-down per rank (pJ) (Joule)
system.mem_ctrl.dram.rank1.selfRefreshEnergy            0                       # Energy for self refresh per rank (pJ) (Joule)
system.mem_ctrl.dram.rank1.totalEnergy     5957577555                       # Total energy per rank (pJ) (Joule)
system.mem_ctrl.dram.rank1.averagePower    569.513002                       # Core power per rank (mW) (Watt)
system.mem_ctrl.dram.rank1.totalIdleTime            0                       # Total Idle time Per DRAM Rank (Tick)
system.mem_ctrl.dram.rank1.pwrStateTime::IDLE   1837243750                       # Time in different power states (Tick)
system.mem_ctrl.dram.rank1.pwrStateTime::REF    349440000                       # Time in different power states (Tick)
system.mem_ctrl.dram.rank1.pwrStateTime::SREF            0                       # Time in different power states (Tick)
system.mem_ctrl.dram.rank1.pwrStateTime::PRE_PDN            0                       # Time in different power states (Tick)
system.mem_ctrl.dram.rank1.pwrStateTime::ACT   8274144250                       # Time in different power states (Tick)
system.mem_ctrl.dram.rank1.pwrStateTime::ACT_PDN            0                       # Time in different power states (Tick)
system.mem_ctrl.power_state.pwrStateResidencyTicks::UNDEFINED  10460828000                       # Cumulative time (in ticks) in various power states (Tick)
system.membus.transDist::ReadResp               78236                       # Transaction distribution (Count)
system.membus.transDist::WritebackDirty         51492                       # Transaction distribution (Count)
system.membus.transDist::CleanEvict             27158                       # Transaction distribution (Count)
system.membus.transDist::ReadExReq                386                       # Transaction distribution (Count)
system.membus.transDist::ReadExResp               386                       # Transaction distribution (Count)
system.membus.transDist::ReadSharedReq          78236                       # Transaction distribution (Count)
system.membus.pktCount_system.l2_cache.mem_side_port::system.mem_ctrl.port       235894                       # Packet count per connected requestor and responder (Count)
system.membus.pktCount_system.l2_cache.mem_side_port::total       235894                       # Packet count per connected requestor and responder (Count)
system.membus.pktCount::total                  235894                       # Packet count per connected requestor and responder (Count)
system.membus.pktSize_system.l2_cache.mem_side_port::system.mem_ctrl.port      8327296                       # Cumulative packet size per connected requestor and responder (Byte)
system.membus.pktSize_system.l2_cache.mem_side_port::total      8327296                       # Cumulative packet size per connected requestor and responder (Byte)
system.membus.pktSize::total                  8327296                       # Cumulative packet size per connected requestor and responder (Byte)
system.membus.snoops                                0                       # Total snoops (Count)
system.membus.snoopTraffic                          0                       # Total snoop traffic (Byte)
system.membus.snoopFanout::samples              78622                       # Request fanout histogram (Count)
system.membus.snoopFanout::mean                     0                       # Request fanout histogram (Count)
system.membus.snoopFanout::stdev                    0                       # Request fanout histogram (Count)
system.membus.snoopFanout::underflows               0      0.00%      0.00% # Request fanout histogram (Count)
system.membus.snoopFanout::0                    78622    100.00%    100.00% # Request fanout histogram (Count)
system.membus.snoopFanout::1                        0      0.00%    100.00% # Request fanout histogram (Count)
system.membus.snoopFanout::overflows                0      0.00%    100.00% # Request fanout histogram (Count)
system.membus.snoopFanout::min_value                0                       # Request fanout histogram (Count)
system.membus.snoopFanout::max_value                0                       # Request fanout histogram (Count)
system.membus.snoopFanout::total                78622                       # Request fanout histogram (Count)
system.membus.power_state.pwrStateResidencyTicks::UNDEFINED  10460828000                       # Cumulative time (in ticks) in various power states (Tick)
system.membus.reqLayer2.occupancy           363240001                       # Layer occupancy (ticks) (Tick)
system.membus.reqLayer2.utilization               0.0                       # Layer utilization (Ratio)
system.membus.respLayer2.occupancy          416404000                       # Layer occupancy (ticks) (Tick)
system.membus.respLayer2.utilization              0.0                       # Layer utilization (Ratio)
system.membus.snoop_filter.totRequests         157272                       # Total number of requests made to the snoop filter. (Count)
system.membus.snoop_filter.hitSingleRequests        78655                       # Number of requests hitting in the snoop filter with a single holder of the requested data. (Count)
system.membus.snoop_filter.hitMultiRequests            0                       # Number of requests hitting in the snoop filter with multiple (>1) holders of the requested data. (Count)
system.membus.snoop_filter.totSnoops                0                       # Total number of snoops made to the snoop filter. (Count)
system.membus.snoop_filter.hitSingleSnoops            0                       # Number of snoops hitting in the snoop filter with a single holder of the requested data. (Count)
system.membus.snoop_filter.hitMultiSnoops            0                       # Number of snoops hitting in the snoop filter with multiple (>1) holders of the requested data. (Count)
system.workload.inst.arm                            0                       # number of arm instructions executed (Count)
system.workload.inst.quiesce                        0                       # number of quiesce instructions executed (Count)

---------- End Simulation Statistics   ----------
