
---------- Begin Simulation Statistics ----------
simSeconds                                   1.005930                       # Number of seconds simulated (Second)
simTicks                                 1005930070000                       # Number of ticks simulated (Tick)
finalTick                                1005930070000                       # Number of ticks from beginning of simulation (restored from checkpoints and never reset) (Tick)
simFreq                                  1000000000000                       # The number of ticks per simulated second ((Tick/Second))
hostSeconds                                    528.38                       # Real time elapsed on the host (Second)
hostTickRate                               1903785374                       # The number of ticks simulated per host second (ticks/s) ((Tick/Second))
hostMemory                                    8618268                       # Number of bytes of host memory used (Byte)
simInsts                                    422435392                       # Number of instructions simulated (Count)
simOps                                      916180633                       # Number of ops (including micro ops) simulated (Count)
hostInstRate                                   799485                       # Simulator instruction rate (inst/s) ((Count/Second))
hostOpRate                                    1733929                       # Simulator op (including micro ops) rate (op/s) ((Count/Second))
system.clk_domain.clock                          1000                       # Clock period in ticks (Tick)
system.clk_domain.voltage_domain.voltage            1                       # Voltage in Volts (Volt)
system.cpu.numCycles                       1005930070                       # Number of cpu cycles simulated (Cycle)
system.cpu.cpi                               2.381248                       # CPI: cycles per instruction (core level) ((Cycle/Count))
system.cpu.ipc                               0.419948                       # IPC: instructions per cycle (core level) ((Count/Cycle))
system.cpu.numWorkItemsStarted                      0                       # Number of work items this cpu started (Count)
system.cpu.numWorkItemsCompleted                    0                       # Number of work items this cpu completed (Count)
system.cpu.commitStats0.numInsts            422438148                       # Number of instructions committed (thread level) (Count)
system.cpu.commitStats0.numOps              916183567                       # Number of ops (including micro ops) committed (thread level) (Count)
system.cpu.commitStats0.numInstsNotNOP              0                       # Number of instructions committed excluding NOPs or prefetches (Count)
system.cpu.commitStats0.numOpsNotNOP                0                       # Number of Ops (including micro ops) Simulated (Count)
system.cpu.commitStats0.cpi                  2.381248                       # CPI: cycles per instruction (thread level) ((Cycle/Count))
system.cpu.commitStats0.ipc                  0.419948                       # IPC: instructions per cycle (thread level) ((Count/Cycle))
system.cpu.commitStats0.numMemRefs                  0                       # Number of memory references committed (Count)
system.cpu.commitStats0.numFpInsts           27201297                       # Number of float instructions (Count)
system.cpu.commitStats0.numIntInsts         856329901                       # Number of integer instructions (Count)
system.cpu.commitStats0.numLoadInsts        103949882                       # Number of load instructions (Count)
system.cpu.commitStats0.numStoreInsts        96939902                       # Number of store instructions (Count)
system.cpu.commitStats0.numVecInsts                 0                       # Number of vector instructions (Count)
system.cpu.commitStats0.committedInstType::No_OpClass     14613719      1.60%      1.60% # Class of committed instruction. (Count)
system.cpu.commitStats0.committedInstType::IntAlu    674081501     73.57%     75.17% # Class of committed instruction. (Count)
system.cpu.commitStats0.committedInstType::IntMult         4817      0.00%     75.17% # Class of committed instruction. (Count)
system.cpu.commitStats0.committedInstType::IntDiv     14870364      1.62%     76.79% # Class of committed instruction. (Count)
system.cpu.commitStats0.committedInstType::FloatAdd      1600899      0.17%     76.97% # Class of committed instruction. (Count)
system.cpu.commitStats0.committedInstType::FloatCmp            0      0.00%     76.97% # Class of committed instruction. (Count)
system.cpu.commitStats0.committedInstType::FloatCvt         1232      0.00%     76.97% # Class of committed instruction. (Count)
system.cpu.commitStats0.committedInstType::FloatMult            0      0.00%     76.97% # Class of committed instruction. (Count)
system.cpu.commitStats0.committedInstType::FloatMultAcc            0      0.00%     76.97% # Class of committed instruction. (Count)
system.cpu.commitStats0.committedInstType::FloatDiv            0      0.00%     76.97% # Class of committed instruction. (Count)
system.cpu.commitStats0.committedInstType::FloatMisc            0      0.00%     76.97% # Class of committed instruction. (Count)
system.cpu.commitStats0.committedInstType::FloatSqrt            0      0.00%     76.97% # Class of committed instruction. (Count)
system.cpu.commitStats0.committedInstType::SimdAdd       204690      0.02%     76.99% # Class of committed instruction. (Count)
system.cpu.commitStats0.committedInstType::SimdAddAcc            0      0.00%     76.99% # Class of committed instruction. (Count)
system.cpu.commitStats0.committedInstType::SimdAlu      5629295      0.61%     77.61% # Class of committed instruction. (Count)
system.cpu.commitStats0.committedInstType::SimdCmp            0      0.00%     77.61% # Class of committed instruction. (Count)
system.cpu.commitStats0.committedInstType::SimdCvt      1170090      0.13%     77.73% # Class of committed instruction. (Count)
system.cpu.commitStats0.committedInstType::SimdMisc      2952731      0.32%     78.06% # Class of committed instruction. (Count)
system.cpu.commitStats0.committedInstType::SimdMult            0      0.00%     78.06% # Class of committed instruction. (Count)
system.cpu.commitStats0.committedInstType::SimdMultAcc            0      0.00%     78.06% # Class of committed instruction. (Count)
system.cpu.commitStats0.committedInstType::SimdMatMultAcc            0      0.00%     78.06% # Class of committed instruction. (Count)
system.cpu.commitStats0.committedInstType::SimdShift       131387      0.01%     78.07% # Class of committed instruction. (Count)
system.cpu.commitStats0.committedInstType::SimdShiftAcc            0      0.00%     78.07% # Class of committed instruction. (Count)
system.cpu.commitStats0.committedInstType::SimdDiv            0      0.00%     78.07% # Class of committed instruction. (Count)
system.cpu.commitStats0.committedInstType::SimdSqrt            0      0.00%     78.07% # Class of committed instruction. (Count)
system.cpu.commitStats0.committedInstType::SimdFloatAdd         4723      0.00%     78.07% # Class of committed instruction. (Count)
system.cpu.commitStats0.committedInstType::SimdFloatAlu            0      0.00%     78.07% # Class of committed instruction. (Count)
system.cpu.commitStats0.committedInstType::SimdFloatCmp            0      0.00%     78.07% # Class of committed instruction. (Count)
system.cpu.commitStats0.committedInstType::SimdFloatCvt        23612      0.00%     78.07% # Class of committed instruction. (Count)
system.cpu.commitStats0.committedInstType::SimdFloatDiv         2362      0.00%     78.07% # Class of committed instruction. (Count)
system.cpu.commitStats0.committedInstType::SimdFloatMisc            0      0.00%     78.07% # Class of committed instruction. (Count)
system.cpu.commitStats0.committedInstType::SimdFloatMult         2361      0.00%     78.07% # Class of committed instruction. (Count)
system.cpu.commitStats0.committedInstType::SimdFloatMultAcc            0      0.00%     78.07% # Class of committed instruction. (Count)
system.cpu.commitStats0.committedInstType::SimdFloatMatMultAcc            0      0.00%     78.07% # Class of committed instruction. (Count)
system.cpu.commitStats0.committedInstType::SimdFloatSqrt            0      0.00%     78.07% # Class of committed instruction. (Count)
system.cpu.commitStats0.committedInstType::SimdReduceAdd            0      0.00%     78.07% # Class of committed instruction. (Count)
system.cpu.commitStats0.committedInstType::SimdReduceAlu            0      0.00%     78.07% # Class of committed instruction. (Count)
system.cpu.commitStats0.committedInstType::SimdReduceCmp            0      0.00%     78.07% # Class of committed instruction. (Count)
system.cpu.commitStats0.committedInstType::SimdFloatReduceAdd            0      0.00%     78.07% # Class of committed instruction. (Count)
system.cpu.commitStats0.committedInstType::SimdFloatReduceCmp            0      0.00%     78.07% # Class of committed instruction. (Count)
system.cpu.commitStats0.committedInstType::SimdAes            0      0.00%     78.07% # Class of committed instruction. (Count)
system.cpu.commitStats0.committedInstType::SimdAesMix            0      0.00%     78.07% # Class of committed instruction. (Count)
system.cpu.commitStats0.committedInstType::SimdSha1Hash            0      0.00%     78.07% # Class of committed instruction. (Count)
system.cpu.commitStats0.committedInstType::SimdSha1Hash2            0      0.00%     78.07% # Class of committed instruction. (Count)
system.cpu.commitStats0.committedInstType::SimdSha256Hash            0      0.00%     78.07% # Class of committed instruction. (Count)
system.cpu.commitStats0.committedInstType::SimdSha256Hash2            0      0.00%     78.07% # Class of committed instruction. (Count)
system.cpu.commitStats0.committedInstType::SimdShaSigma2            0      0.00%     78.07% # Class of committed instruction. (Count)
system.cpu.commitStats0.committedInstType::SimdShaSigma3            0      0.00%     78.07% # Class of committed instruction. (Count)
system.cpu.commitStats0.committedInstType::SimdPredAlu            0      0.00%     78.07% # Class of committed instruction. (Count)
system.cpu.commitStats0.committedInstType::Matrix            0      0.00%     78.07% # Class of committed instruction. (Count)
system.cpu.commitStats0.committedInstType::MatrixMov            0      0.00%     78.07% # Class of committed instruction. (Count)
system.cpu.commitStats0.committedInstType::MatrixOP            0      0.00%     78.07% # Class of committed instruction. (Count)
system.cpu.commitStats0.committedInstType::MemRead     99610496     10.87%     88.95% # Class of committed instruction. (Count)
system.cpu.commitStats0.committedInstType::MemWrite     87995651      9.60%     98.55% # Class of committed instruction. (Count)
system.cpu.commitStats0.committedInstType::FloatMemRead      4339386      0.47%     99.02% # Class of committed instruction. (Count)
system.cpu.commitStats0.committedInstType::FloatMemWrite      8944251      0.98%    100.00% # Class of committed instruction. (Count)
system.cpu.commitStats0.committedInstType::IprAccess            0      0.00%    100.00% # Class of committed instruction. (Count)
system.cpu.commitStats0.committedInstType::InstPrefetch            0      0.00%    100.00% # Class of committed instruction. (Count)
system.cpu.commitStats0.committedInstType::SimdUnitStrideLoad            0      0.00%    100.00% # Class of committed instruction. (Count)
system.cpu.commitStats0.committedInstType::SimdUnitStrideStore            0      0.00%    100.00% # Class of committed instruction. (Count)
system.cpu.commitStats0.committedInstType::SimdUnitStrideMaskLoad            0      0.00%    100.00% # Class of committed instruction. (Count)
system.cpu.commitStats0.committedInstType::SimdUnitStrideMaskStore            0      0.00%    100.00% # Class of committed instruction. (Count)
system.cpu.commitStats0.committedInstType::SimdStridedLoad            0      0.00%    100.00% # Class of committed instruction. (Count)
system.cpu.commitStats0.committedInstType::SimdStridedStore            0      0.00%    100.00% # Class of committed instruction. (Count)
system.cpu.commitStats0.committedInstType::SimdIndexedLoad            0      0.00%    100.00% # Class of committed instruction. (Count)
system.cpu.commitStats0.committedInstType::SimdIndexedStore            0      0.00%    100.00% # Class of committed instruction. (Count)
system.cpu.commitStats0.committedInstType::SimdWholeRegisterLoad            0      0.00%    100.00% # Class of committed instruction. (Count)
system.cpu.commitStats0.committedInstType::SimdWholeRegisterStore            0      0.00%    100.00% # Class of committed instruction. (Count)
system.cpu.commitStats0.committedInstType::SimdUnitStrideFaultOnlyFirstLoad            0      0.00%    100.00% # Class of committed instruction. (Count)
system.cpu.commitStats0.committedInstType::SimdUnitStrideSegmentedLoad            0      0.00%    100.00% # Class of committed instruction. (Count)
system.cpu.commitStats0.committedInstType::SimdUnitStrideSegmentedStore            0      0.00%    100.00% # Class of committed instruction. (Count)
system.cpu.commitStats0.committedInstType::SimdExt            0      0.00%    100.00% # Class of committed instruction. (Count)
system.cpu.commitStats0.committedInstType::SimdFloatExt            0      0.00%    100.00% # Class of committed instruction. (Count)
system.cpu.commitStats0.committedInstType::SimdConfig            0      0.00%    100.00% # Class of committed instruction. (Count)
system.cpu.commitStats0.committedInstType::total    916183567                       # Class of committed instruction. (Count)
system.cpu.commitStats0.committedControl::IsControl    110074731                       # Class of control type instructions committed (Count)
system.cpu.commitStats0.committedControl::IsDirectControl     99554937                       # Class of control type instructions committed (Count)
system.cpu.commitStats0.committedControl::IsIndirectControl     10503058                       # Class of control type instructions committed (Count)
system.cpu.commitStats0.committedControl::IsCondControl     89484850                       # Class of control type instructions committed (Count)
system.cpu.commitStats0.committedControl::IsUncondControl     20573145                       # Class of control type instructions committed (Count)
system.cpu.commitStats0.committedControl::IsCall      6155416                       # Class of control type instructions committed (Count)
system.cpu.commitStats0.committedControl::IsReturn      6155411                       # Class of control type instructions committed (Count)
system.cpu.exec_context.thread_0.numMatAluAccesses            0                       # Number of matrix alu accesses (Count)
system.cpu.exec_context.thread_0.numCallsReturns     12310827                       # Number of times a function call or return occured (Count)
system.cpu.exec_context.thread_0.numMatInsts            0                       # Number of matrix instructions (Count)
system.cpu.exec_context.thread_0.numIdleCycles            0                       # Number of idle cycles (Cycle)
system.cpu.exec_context.thread_0.numBusyCycles   1005930070                       # Number of busy cycles (Cycle)
system.cpu.exec_context.thread_0.notIdleFraction            1                       # Percentage of non-idle cycles (Ratio)
system.cpu.exec_context.thread_0.idleFraction            0                       # Percentage of idle cycles (Ratio)
system.cpu.executeStats0.numInsts                   0                       # Number of executed instructions (Count)
system.cpu.executeStats0.numNop                     0                       # Number of nop insts executed (Count)
system.cpu.executeStats0.numBranches                0                       # Number of branches executed (Count)
system.cpu.executeStats0.numLoadInsts               0                       # Number of load instructions executed (Count)
system.cpu.executeStats0.numStoreInsts      200889784                       # Number of stores executed (Count)
system.cpu.executeStats0.instRate                   0                       # Inst execution rate ((Count/Cycle))
system.cpu.executeStats0.numFpAluAccesses     27201297                       # Number of float alu accesses (Count)
system.cpu.executeStats0.numFpRegReads       32124069                       # Number of times the floating registers were read (Count)
system.cpu.executeStats0.numFpRegWrites      16931716                       # Number of times the floating registers were written (Count)
system.cpu.executeStats0.numIntAluAccesses    856329901                       # Number of integer alu accesses (Count)
system.cpu.executeStats0.numIntRegReads    1151035035                       # Number of times the integer registers were read (Count)
system.cpu.executeStats0.numIntRegWrites    648045652                       # Number of times the integer registers were written (Count)
system.cpu.executeStats0.numMemRefs         200889784                       # Number of memory refs (Count)
system.cpu.executeStats0.numMiscRegReads    357137755                       # Number of times the Misc registers were read (Count)
system.cpu.executeStats0.numMiscRegWrites          693                       # Number of times the Misc registers were written (Count)
system.cpu.executeStats0.numVecAluAccesses            0                       # Number of vector alu accesses (Count)
system.cpu.executeStats0.numDiscardedOps            0                       # Number of ops (including micro ops) which were discarded before commit (Count)
system.cpu.fetchStats0.numInsts             422438148                       # Number of instructions fetched (thread level) (Count)
system.cpu.fetchStats0.numOps               916183567                       # Number of ops (including micro ops) fetched (thread level) (Count)
system.cpu.fetchStats0.fetchRate             0.419948                       # Number of inst fetches per cycle ((Count/Cycle))
system.cpu.fetchStats0.numBranches          110074731                       # Number of branches fetched (Count)
system.cpu.fetchStats0.branchRate            0.109426                       # Number of branch fetches per cycle (Ratio)
system.cpu.fetchStats0.numFetchSuspends             0                       # Number of times Execute suspended instruction fetching (Count)
system.cpu.interrupts.clk_domain.clock          16000                       # Clock period in ticks (Tick)
system.cpu.l1d.demandHits::cpu.data         194525179                       # number of demand (read+write) hits (Count)
system.cpu.l1d.demandHits::total            194525179                       # number of demand (read+write) hits (Count)
system.cpu.l1d.overallHits::cpu.data        194525179                       # number of overall hits (Count)
system.cpu.l1d.overallHits::total           194525179                       # number of overall hits (Count)
system.cpu.l1d.demandMisses::cpu.data         6417478                       # number of demand (read+write) misses (Count)
system.cpu.l1d.demandMisses::total            6417478                       # number of demand (read+write) misses (Count)
system.cpu.l1d.overallMisses::cpu.data        6417478                       # number of overall misses (Count)
system.cpu.l1d.overallMisses::total           6417478                       # number of overall misses (Count)
system.cpu.l1d.demandMissLatency::cpu.data 112135756000                       # number of demand (read+write) miss ticks (Tick)
system.cpu.l1d.demandMissLatency::total  112135756000                       # number of demand (read+write) miss ticks (Tick)
system.cpu.l1d.overallMissLatency::cpu.data 112135756000                       # number of overall miss ticks (Tick)
system.cpu.l1d.overallMissLatency::total 112135756000                       # number of overall miss ticks (Tick)
system.cpu.l1d.demandAccesses::cpu.data     200942657                       # number of demand (read+write) accesses (Count)
system.cpu.l1d.demandAccesses::total        200942657                       # number of demand (read+write) accesses (Count)
system.cpu.l1d.overallAccesses::cpu.data    200942657                       # number of overall (read+write) accesses (Count)
system.cpu.l1d.overallAccesses::total       200942657                       # number of overall (read+write) accesses (Count)
system.cpu.l1d.demandMissRate::cpu.data      0.031937                       # miss rate for demand accesses (Ratio)
system.cpu.l1d.demandMissRate::total         0.031937                       # miss rate for demand accesses (Ratio)
system.cpu.l1d.overallMissRate::cpu.data     0.031937                       # miss rate for overall accesses (Ratio)
system.cpu.l1d.overallMissRate::total        0.031937                       # miss rate for overall accesses (Ratio)
system.cpu.l1d.demandAvgMissLatency::cpu.data 17473.492858                       # average overall miss latency in ticks ((Tick/Count))
system.cpu.l1d.demandAvgMissLatency::total 17473.492858                       # average overall miss latency in ticks ((Tick/Count))
system.cpu.l1d.overallAvgMissLatency::cpu.data 17473.492858                       # average overall miss latency ((Tick/Count))
system.cpu.l1d.overallAvgMissLatency::total 17473.492858                       # average overall miss latency ((Tick/Count))
system.cpu.l1d.blockedCycles::no_mshrs              0                       # number of cycles access was blocked (Cycle)
system.cpu.l1d.blockedCycles::no_targets            0                       # number of cycles access was blocked (Cycle)
system.cpu.l1d.blockedCauses::no_mshrs              0                       # number of times access was blocked (Count)
system.cpu.l1d.blockedCauses::no_targets            0                       # number of times access was blocked (Count)
system.cpu.l1d.avgBlocked::no_mshrs               nan                       # average number of cycles each access was blocked ((Cycle/Count))
system.cpu.l1d.avgBlocked::no_targets             nan                       # average number of cycles each access was blocked ((Cycle/Count))
system.cpu.l1d.writebacks::writebacks         5202614                       # number of writebacks (Count)
system.cpu.l1d.writebacks::total              5202614                       # number of writebacks (Count)
system.cpu.l1d.demandMshrMisses::cpu.data      6417478                       # number of demand (read+write) MSHR misses (Count)
system.cpu.l1d.demandMshrMisses::total        6417478                       # number of demand (read+write) MSHR misses (Count)
system.cpu.l1d.overallMshrMisses::cpu.data      6417478                       # number of overall MSHR misses (Count)
system.cpu.l1d.overallMshrMisses::total       6417478                       # number of overall MSHR misses (Count)
system.cpu.l1d.demandMshrMissLatency::cpu.data 105718278000                       # number of demand (read+write) MSHR miss ticks (Tick)
system.cpu.l1d.demandMshrMissLatency::total 105718278000                       # number of demand (read+write) MSHR miss ticks (Tick)
system.cpu.l1d.overallMshrMissLatency::cpu.data 105718278000                       # number of overall MSHR miss ticks (Tick)
system.cpu.l1d.overallMshrMissLatency::total 105718278000                       # number of overall MSHR miss ticks (Tick)
system.cpu.l1d.demandMshrMissRate::cpu.data     0.031937                       # mshr miss ratio for demand accesses (Ratio)
system.cpu.l1d.demandMshrMissRate::total     0.031937                       # mshr miss ratio for demand accesses (Ratio)
system.cpu.l1d.overallMshrMissRate::cpu.data     0.031937                       # mshr miss ratio for overall accesses (Ratio)
system.cpu.l1d.overallMshrMissRate::total     0.031937                       # mshr miss ratio for overall accesses (Ratio)
system.cpu.l1d.demandAvgMshrMissLatency::cpu.data 16473.492858                       # average overall mshr miss latency ((Tick/Count))
system.cpu.l1d.demandAvgMshrMissLatency::total 16473.492858                       # average overall mshr miss latency ((Tick/Count))
system.cpu.l1d.overallAvgMshrMissLatency::cpu.data 16473.492858                       # average overall mshr miss latency ((Tick/Count))
system.cpu.l1d.overallAvgMshrMissLatency::total 16473.492858                       # average overall mshr miss latency ((Tick/Count))
system.cpu.l1d.replacements                   6419842                       # number of replacements (Count)
system.cpu.l1d.LockedRMWReadReq.hits::cpu.data        21679                       # number of LockedRMWReadReq hits (Count)
system.cpu.l1d.LockedRMWReadReq.hits::total        21679                       # number of LockedRMWReadReq hits (Count)
system.cpu.l1d.LockedRMWReadReq.misses::cpu.data         2428                       # number of LockedRMWReadReq misses (Count)
system.cpu.l1d.LockedRMWReadReq.misses::total         2428                       # number of LockedRMWReadReq misses (Count)
system.cpu.l1d.LockedRMWReadReq.missLatency::cpu.data     32116000                       # number of LockedRMWReadReq miss ticks (Tick)
system.cpu.l1d.LockedRMWReadReq.missLatency::total     32116000                       # number of LockedRMWReadReq miss ticks (Tick)
system.cpu.l1d.LockedRMWReadReq.accesses::cpu.data        24107                       # number of LockedRMWReadReq accesses(hits+misses) (Count)
system.cpu.l1d.LockedRMWReadReq.accesses::total        24107                       # number of LockedRMWReadReq accesses(hits+misses) (Count)
system.cpu.l1d.LockedRMWReadReq.missRate::cpu.data     0.100718                       # miss rate for LockedRMWReadReq accesses (Ratio)
system.cpu.l1d.LockedRMWReadReq.missRate::total     0.100718                       # miss rate for LockedRMWReadReq accesses (Ratio)
system.cpu.l1d.LockedRMWReadReq.avgMissLatency::cpu.data 13227.347611                       # average LockedRMWReadReq miss latency ((Tick/Count))
system.cpu.l1d.LockedRMWReadReq.avgMissLatency::total 13227.347611                       # average LockedRMWReadReq miss latency ((Tick/Count))
system.cpu.l1d.LockedRMWReadReq.mshrMisses::cpu.data         2428                       # number of LockedRMWReadReq MSHR misses (Count)
system.cpu.l1d.LockedRMWReadReq.mshrMisses::total         2428                       # number of LockedRMWReadReq MSHR misses (Count)
system.cpu.l1d.LockedRMWReadReq.mshrMissLatency::cpu.data     83483000                       # number of LockedRMWReadReq MSHR miss ticks (Tick)
system.cpu.l1d.LockedRMWReadReq.mshrMissLatency::total     83483000                       # number of LockedRMWReadReq MSHR miss ticks (Tick)
system.cpu.l1d.LockedRMWReadReq.mshrMissRate::cpu.data     0.100718                       # mshr miss rate for LockedRMWReadReq accesses (Ratio)
system.cpu.l1d.LockedRMWReadReq.mshrMissRate::total     0.100718                       # mshr miss rate for LockedRMWReadReq accesses (Ratio)
system.cpu.l1d.LockedRMWReadReq.avgMshrMissLatency::cpu.data 34383.443163                       # average LockedRMWReadReq mshr miss latency ((Tick/Count))
system.cpu.l1d.LockedRMWReadReq.avgMshrMissLatency::total 34383.443163                       # average LockedRMWReadReq mshr miss latency ((Tick/Count))
system.cpu.l1d.LockedRMWWriteReq.hits::cpu.data        24107                       # number of LockedRMWWriteReq hits (Count)
system.cpu.l1d.LockedRMWWriteReq.hits::total        24107                       # number of LockedRMWWriteReq hits (Count)
system.cpu.l1d.LockedRMWWriteReq.accesses::cpu.data        24107                       # number of LockedRMWWriteReq accesses(hits+misses) (Count)
system.cpu.l1d.LockedRMWWriteReq.accesses::total        24107                       # number of LockedRMWWriteReq accesses(hits+misses) (Count)
system.cpu.l1d.ReadReq.hits::cpu.data        98773855                       # number of ReadReq hits (Count)
system.cpu.l1d.ReadReq.hits::total           98773855                       # number of ReadReq hits (Count)
system.cpu.l1d.ReadReq.misses::cpu.data       5248503                       # number of ReadReq misses (Count)
system.cpu.l1d.ReadReq.misses::total          5248503                       # number of ReadReq misses (Count)
system.cpu.l1d.ReadReq.missLatency::cpu.data  82355710000                       # number of ReadReq miss ticks (Tick)
system.cpu.l1d.ReadReq.missLatency::total  82355710000                       # number of ReadReq miss ticks (Tick)
system.cpu.l1d.ReadReq.accesses::cpu.data    104022358                       # number of ReadReq accesses(hits+misses) (Count)
system.cpu.l1d.ReadReq.accesses::total      104022358                       # number of ReadReq accesses(hits+misses) (Count)
system.cpu.l1d.ReadReq.missRate::cpu.data     0.050456                       # miss rate for ReadReq accesses (Ratio)
system.cpu.l1d.ReadReq.missRate::total       0.050456                       # miss rate for ReadReq accesses (Ratio)
system.cpu.l1d.ReadReq.avgMissLatency::cpu.data 15691.276160                       # average ReadReq miss latency ((Tick/Count))
system.cpu.l1d.ReadReq.avgMissLatency::total 15691.276160                       # average ReadReq miss latency ((Tick/Count))
system.cpu.l1d.ReadReq.mshrMisses::cpu.data      5248503                       # number of ReadReq MSHR misses (Count)
system.cpu.l1d.ReadReq.mshrMisses::total      5248503                       # number of ReadReq MSHR misses (Count)
system.cpu.l1d.ReadReq.mshrMissLatency::cpu.data  77107207000                       # number of ReadReq MSHR miss ticks (Tick)
system.cpu.l1d.ReadReq.mshrMissLatency::total  77107207000                       # number of ReadReq MSHR miss ticks (Tick)
system.cpu.l1d.ReadReq.mshrMissRate::cpu.data     0.050456                       # mshr miss rate for ReadReq accesses (Ratio)
system.cpu.l1d.ReadReq.mshrMissRate::total     0.050456                       # mshr miss rate for ReadReq accesses (Ratio)
system.cpu.l1d.ReadReq.avgMshrMissLatency::cpu.data 14691.276160                       # average ReadReq mshr miss latency ((Tick/Count))
system.cpu.l1d.ReadReq.avgMshrMissLatency::total 14691.276160                       # average ReadReq mshr miss latency ((Tick/Count))
system.cpu.l1d.WriteReq.hits::cpu.data       95751324                       # number of WriteReq hits (Count)
system.cpu.l1d.WriteReq.hits::total          95751324                       # number of WriteReq hits (Count)
system.cpu.l1d.WriteReq.misses::cpu.data      1168975                       # number of WriteReq misses (Count)
system.cpu.l1d.WriteReq.misses::total         1168975                       # number of WriteReq misses (Count)
system.cpu.l1d.WriteReq.missLatency::cpu.data  29780046000                       # number of WriteReq miss ticks (Tick)
system.cpu.l1d.WriteReq.missLatency::total  29780046000                       # number of WriteReq miss ticks (Tick)
system.cpu.l1d.WriteReq.accesses::cpu.data     96920299                       # number of WriteReq accesses(hits+misses) (Count)
system.cpu.l1d.WriteReq.accesses::total      96920299                       # number of WriteReq accesses(hits+misses) (Count)
system.cpu.l1d.WriteReq.missRate::cpu.data     0.012061                       # miss rate for WriteReq accesses (Ratio)
system.cpu.l1d.WriteReq.missRate::total      0.012061                       # miss rate for WriteReq accesses (Ratio)
system.cpu.l1d.WriteReq.avgMissLatency::cpu.data 25475.348917                       # average WriteReq miss latency ((Tick/Count))
system.cpu.l1d.WriteReq.avgMissLatency::total 25475.348917                       # average WriteReq miss latency ((Tick/Count))
system.cpu.l1d.WriteReq.mshrMisses::cpu.data      1168975                       # number of WriteReq MSHR misses (Count)
system.cpu.l1d.WriteReq.mshrMisses::total      1168975                       # number of WriteReq MSHR misses (Count)
system.cpu.l1d.WriteReq.mshrMissLatency::cpu.data  28611071000                       # number of WriteReq MSHR miss ticks (Tick)
system.cpu.l1d.WriteReq.mshrMissLatency::total  28611071000                       # number of WriteReq MSHR miss ticks (Tick)
system.cpu.l1d.WriteReq.mshrMissRate::cpu.data     0.012061                       # mshr miss rate for WriteReq accesses (Ratio)
system.cpu.l1d.WriteReq.mshrMissRate::total     0.012061                       # mshr miss rate for WriteReq accesses (Ratio)
system.cpu.l1d.WriteReq.avgMshrMissLatency::cpu.data 24475.348917                       # average WriteReq mshr miss latency ((Tick/Count))
system.cpu.l1d.WriteReq.avgMshrMissLatency::total 24475.348917                       # average WriteReq mshr miss latency ((Tick/Count))
system.cpu.l1d.power_state.pwrStateResidencyTicks::UNDEFINED 1005930070000                       # Cumulative time (in ticks) in various power states (Tick)
system.cpu.l1d.tags.tagsInUse               63.999712                       # Average ticks per tags in use ((Tick/Count))
system.cpu.l1d.tags.totalRefs               200990615                       # Total number of references to valid blocks. (Count)
system.cpu.l1d.tags.sampledRefs               6419842                       # Sample count of references to valid blocks. (Count)
system.cpu.l1d.tags.avgRefs                 31.307720                       # Average number of references to valid blocks. ((Count/Count))
system.cpu.l1d.tags.warmupTick                 158000                       # The tick when the warmup percentage was hit. (Tick)
system.cpu.l1d.tags.occupancies::cpu.data    63.999712                       # Average occupied blocks per tick, per requestor ((Count/Tick))
system.cpu.l1d.tags.avgOccs::cpu.data        0.999996                       # Average percentage of cache occupancy ((Ratio/Tick))
system.cpu.l1d.tags.avgOccs::total           0.999996                       # Average percentage of cache occupancy ((Ratio/Tick))
system.cpu.l1d.tags.occupanciesTaskId::1024           64                       # Occupied blocks per task id (Count)
system.cpu.l1d.tags.ageTaskId_1024::0              64                       # Occupied blocks per task id, per block age (Count)
system.cpu.l1d.tags.ratioOccsTaskId::1024            1                       # Ratio of occupied blocks and all blocks, per task id (Ratio)
system.cpu.l1d.tags.tagAccesses             408401648                       # Number of tag accesses (Count)
system.cpu.l1d.tags.dataAccesses            408401648                       # Number of data accesses (Count)
system.cpu.l1d.tags.power_state.pwrStateResidencyTicks::UNDEFINED 1005930070000                       # Cumulative time (in ticks) in various power states (Tick)
system.cpu.l1i.demandHits::cpu.inst         563026207                       # number of demand (read+write) hits (Count)
system.cpu.l1i.demandHits::total            563026207                       # number of demand (read+write) hits (Count)
system.cpu.l1i.overallHits::cpu.inst        563026207                       # number of overall hits (Count)
system.cpu.l1i.overallHits::total           563026207                       # number of overall hits (Count)
system.cpu.l1i.demandMisses::cpu.inst         8008593                       # number of demand (read+write) misses (Count)
system.cpu.l1i.demandMisses::total            8008593                       # number of demand (read+write) misses (Count)
system.cpu.l1i.overallMisses::cpu.inst        8008593                       # number of overall misses (Count)
system.cpu.l1i.overallMisses::total           8008593                       # number of overall misses (Count)
system.cpu.l1i.demandMissLatency::cpu.inst 128862165000                       # number of demand (read+write) miss ticks (Tick)
system.cpu.l1i.demandMissLatency::total  128862165000                       # number of demand (read+write) miss ticks (Tick)
system.cpu.l1i.overallMissLatency::cpu.inst 128862165000                       # number of overall miss ticks (Tick)
system.cpu.l1i.overallMissLatency::total 128862165000                       # number of overall miss ticks (Tick)
system.cpu.l1i.demandAccesses::cpu.inst     571034800                       # number of demand (read+write) accesses (Count)
system.cpu.l1i.demandAccesses::total        571034800                       # number of demand (read+write) accesses (Count)
system.cpu.l1i.overallAccesses::cpu.inst    571034800                       # number of overall (read+write) accesses (Count)
system.cpu.l1i.overallAccesses::total       571034800                       # number of overall (read+write) accesses (Count)
system.cpu.l1i.demandMissRate::cpu.inst      0.014025                       # miss rate for demand accesses (Ratio)
system.cpu.l1i.demandMissRate::total         0.014025                       # miss rate for demand accesses (Ratio)
system.cpu.l1i.overallMissRate::cpu.inst     0.014025                       # miss rate for overall accesses (Ratio)
system.cpu.l1i.overallMissRate::total        0.014025                       # miss rate for overall accesses (Ratio)
system.cpu.l1i.demandAvgMissLatency::cpu.inst 16090.487430                       # average overall miss latency in ticks ((Tick/Count))
system.cpu.l1i.demandAvgMissLatency::total 16090.487430                       # average overall miss latency in ticks ((Tick/Count))
system.cpu.l1i.overallAvgMissLatency::cpu.inst 16090.487430                       # average overall miss latency ((Tick/Count))
system.cpu.l1i.overallAvgMissLatency::total 16090.487430                       # average overall miss latency ((Tick/Count))
system.cpu.l1i.blockedCycles::no_mshrs              0                       # number of cycles access was blocked (Cycle)
system.cpu.l1i.blockedCycles::no_targets            0                       # number of cycles access was blocked (Cycle)
system.cpu.l1i.blockedCauses::no_mshrs              0                       # number of times access was blocked (Count)
system.cpu.l1i.blockedCauses::no_targets            0                       # number of times access was blocked (Count)
system.cpu.l1i.avgBlocked::no_mshrs               nan                       # average number of cycles each access was blocked ((Cycle/Count))
system.cpu.l1i.avgBlocked::no_targets             nan                       # average number of cycles each access was blocked ((Cycle/Count))
system.cpu.l1i.demandMshrMisses::cpu.inst      8008593                       # number of demand (read+write) MSHR misses (Count)
system.cpu.l1i.demandMshrMisses::total        8008593                       # number of demand (read+write) MSHR misses (Count)
system.cpu.l1i.overallMshrMisses::cpu.inst      8008593                       # number of overall MSHR misses (Count)
system.cpu.l1i.overallMshrMisses::total       8008593                       # number of overall MSHR misses (Count)
system.cpu.l1i.demandMshrMissLatency::cpu.inst 120853572000                       # number of demand (read+write) MSHR miss ticks (Tick)
system.cpu.l1i.demandMshrMissLatency::total 120853572000                       # number of demand (read+write) MSHR miss ticks (Tick)
system.cpu.l1i.overallMshrMissLatency::cpu.inst 120853572000                       # number of overall MSHR miss ticks (Tick)
system.cpu.l1i.overallMshrMissLatency::total 120853572000                       # number of overall MSHR miss ticks (Tick)
system.cpu.l1i.demandMshrMissRate::cpu.inst     0.014025                       # mshr miss ratio for demand accesses (Ratio)
system.cpu.l1i.demandMshrMissRate::total     0.014025                       # mshr miss ratio for demand accesses (Ratio)
system.cpu.l1i.overallMshrMissRate::cpu.inst     0.014025                       # mshr miss ratio for overall accesses (Ratio)
system.cpu.l1i.overallMshrMissRate::total     0.014025                       # mshr miss ratio for overall accesses (Ratio)
system.cpu.l1i.demandAvgMshrMissLatency::cpu.inst 15090.487430                       # average overall mshr miss latency ((Tick/Count))
system.cpu.l1i.demandAvgMshrMissLatency::total 15090.487430                       # average overall mshr miss latency ((Tick/Count))
system.cpu.l1i.overallAvgMshrMissLatency::cpu.inst 15090.487430                       # average overall mshr miss latency ((Tick/Count))
system.cpu.l1i.overallAvgMshrMissLatency::total 15090.487430                       # average overall mshr miss latency ((Tick/Count))
system.cpu.l1i.replacements                   8008529                       # number of replacements (Count)
system.cpu.l1i.ReadReq.hits::cpu.inst       563026207                       # number of ReadReq hits (Count)
system.cpu.l1i.ReadReq.hits::total          563026207                       # number of ReadReq hits (Count)
system.cpu.l1i.ReadReq.misses::cpu.inst       8008593                       # number of ReadReq misses (Count)
system.cpu.l1i.ReadReq.misses::total          8008593                       # number of ReadReq misses (Count)
system.cpu.l1i.ReadReq.missLatency::cpu.inst 128862165000                       # number of ReadReq miss ticks (Tick)
system.cpu.l1i.ReadReq.missLatency::total 128862165000                       # number of ReadReq miss ticks (Tick)
system.cpu.l1i.ReadReq.accesses::cpu.inst    571034800                       # number of ReadReq accesses(hits+misses) (Count)
system.cpu.l1i.ReadReq.accesses::total      571034800                       # number of ReadReq accesses(hits+misses) (Count)
system.cpu.l1i.ReadReq.missRate::cpu.inst     0.014025                       # miss rate for ReadReq accesses (Ratio)
system.cpu.l1i.ReadReq.missRate::total       0.014025                       # miss rate for ReadReq accesses (Ratio)
system.cpu.l1i.ReadReq.avgMissLatency::cpu.inst 16090.487430                       # average ReadReq miss latency ((Tick/Count))
system.cpu.l1i.ReadReq.avgMissLatency::total 16090.487430                       # average ReadReq miss latency ((Tick/Count))
system.cpu.l1i.ReadReq.mshrMisses::cpu.inst      8008593                       # number of ReadReq MSHR misses (Count)
system.cpu.l1i.ReadReq.mshrMisses::total      8008593                       # number of ReadReq MSHR misses (Count)
system.cpu.l1i.ReadReq.mshrMissLatency::cpu.inst 120853572000                       # number of ReadReq MSHR miss ticks (Tick)
system.cpu.l1i.ReadReq.mshrMissLatency::total 120853572000                       # number of ReadReq MSHR miss ticks (Tick)
system.cpu.l1i.ReadReq.mshrMissRate::cpu.inst     0.014025                       # mshr miss rate for ReadReq accesses (Ratio)
system.cpu.l1i.ReadReq.mshrMissRate::total     0.014025                       # mshr miss rate for ReadReq accesses (Ratio)
system.cpu.l1i.ReadReq.avgMshrMissLatency::cpu.inst 15090.487430                       # average ReadReq mshr miss latency ((Tick/Count))
system.cpu.l1i.ReadReq.avgMshrMissLatency::total 15090.487430                       # average ReadReq mshr miss latency ((Tick/Count))
system.cpu.l1i.power_state.pwrStateResidencyTicks::UNDEFINED 1005930070000                       # Cumulative time (in ticks) in various power states (Tick)
system.cpu.l1i.tags.tagsInUse               63.999245                       # Average ticks per tags in use ((Tick/Count))
system.cpu.l1i.tags.totalRefs               570980133                       # Total number of references to valid blocks. (Count)
system.cpu.l1i.tags.sampledRefs               8008529                       # Sample count of references to valid blocks. (Count)
system.cpu.l1i.tags.avgRefs                 71.296506                       # Average number of references to valid blocks. ((Count/Count))
system.cpu.l1i.tags.warmupTick                  79000                       # The tick when the warmup percentage was hit. (Tick)
system.cpu.l1i.tags.occupancies::cpu.inst    63.999245                       # Average occupied blocks per tick, per requestor ((Count/Tick))
system.cpu.l1i.tags.avgOccs::cpu.inst        0.999988                       # Average percentage of cache occupancy ((Ratio/Tick))
system.cpu.l1i.tags.avgOccs::total           0.999988                       # Average percentage of cache occupancy ((Ratio/Tick))
system.cpu.l1i.tags.occupanciesTaskId::1024           64                       # Occupied blocks per task id (Count)
system.cpu.l1i.tags.ageTaskId_1024::0              32                       # Occupied blocks per task id, per block age (Count)
system.cpu.l1i.tags.ageTaskId_1024::1               5                       # Occupied blocks per task id, per block age (Count)
system.cpu.l1i.tags.ageTaskId_1024::2              27                       # Occupied blocks per task id, per block age (Count)
system.cpu.l1i.tags.ratioOccsTaskId::1024            1                       # Ratio of occupied blocks and all blocks, per task id (Ratio)
system.cpu.l1i.tags.tagAccesses            1150078193                       # Number of tag accesses (Count)
system.cpu.l1i.tags.dataAccesses           1150078193                       # Number of data accesses (Count)
system.cpu.l1i.tags.power_state.pwrStateResidencyTicks::UNDEFINED 1005930070000                       # Cumulative time (in ticks) in various power states (Tick)
system.cpu.mmu.dtb.rdAccesses               104046713                       # TLB accesses on read requests (Count)
system.cpu.mmu.dtb.wrAccesses                96944636                       # TLB accesses on write requests (Count)
system.cpu.mmu.dtb.rdMisses                      1693                       # TLB misses on read requests (Count)
system.cpu.mmu.dtb.wrMisses                       505                       # TLB misses on write requests (Count)
system.cpu.mmu.dtb.walker.power_state.pwrStateResidencyTicks::UNDEFINED 1005930070000                       # Cumulative time (in ticks) in various power states (Tick)
system.cpu.mmu.itb.rdAccesses                       0                       # TLB accesses on read requests (Count)
system.cpu.mmu.itb.wrAccesses               571034915                       # TLB accesses on write requests (Count)
system.cpu.mmu.itb.rdMisses                         0                       # TLB misses on read requests (Count)
system.cpu.mmu.itb.wrMisses                       474                       # TLB misses on write requests (Count)
system.cpu.mmu.itb.walker.power_state.pwrStateResidencyTicks::UNDEFINED 1005930070000                       # Cumulative time (in ticks) in various power states (Tick)
system.cpu.power_state.pwrStateResidencyTicks::ON 1005930070000                       # Cumulative time (in ticks) in various power states (Tick)
system.cpu.thread_0.numInsts                        0                       # Number of Instructions committed (Count)
system.cpu.thread_0.numOps                          0                       # Number of Ops committed (Count)
system.cpu.thread_0.numMemRefs                      0                       # Number of Memory References (Count)
system.cpu.workload.numSyscalls                  2457                       # Number of system calls (Count)
system.l2_bus.transDist::ReadResp            13257096                       # Transaction distribution (Count)
system.l2_bus.transDist::WritebackDirty       5673733                       # Transaction distribution (Count)
system.l2_bus.transDist::CleanEvict           9952868                       # Transaction distribution (Count)
system.l2_bus.transDist::ReadExReq            1171403                       # Transaction distribution (Count)
system.l2_bus.transDist::ReadExResp           1171403                       # Transaction distribution (Count)
system.l2_bus.transDist::ReadSharedReq       13257096                       # Transaction distribution (Count)
system.l2_bus.pktCount_system.cpu.l1d.mem_side_port::system.l2_cache.cpu_side_port     19259654                       # Packet count per connected requestor and responder (Count)
system.l2_bus.pktCount_system.cpu.l1i.mem_side_port::system.l2_cache.cpu_side_port     24025715                       # Packet count per connected requestor and responder (Count)
system.l2_bus.pktCount::total                43285369                       # Packet count per connected requestor and responder (Count)
system.l2_bus.pktSize_system.cpu.l1d.mem_side_port::system.l2_cache.cpu_side_port    743841280                       # Cumulative packet size per connected requestor and responder (Byte)
system.l2_bus.pktSize_system.cpu.l1i.mem_side_port::system.l2_cache.cpu_side_port    512549952                       # Cumulative packet size per connected requestor and responder (Byte)
system.l2_bus.pktSize::total               1256391232                       # Cumulative packet size per connected requestor and responder (Byte)
system.l2_bus.snoops                          1198230                       # Total snoops (Count)
system.l2_bus.snoopTraffic                   30151616                       # Total snoop traffic (Byte)
system.l2_bus.snoopFanout::samples           15626729                       # Request fanout histogram (Count)
system.l2_bus.snoopFanout::mean              0.006194                       # Request fanout histogram (Count)
system.l2_bus.snoopFanout::stdev             0.078459                       # Request fanout histogram (Count)
system.l2_bus.snoopFanout::underflows               0      0.00%      0.00% # Request fanout histogram (Count)
system.l2_bus.snoopFanout::0                 15529933     99.38%     99.38% # Request fanout histogram (Count)
system.l2_bus.snoopFanout::1                    96796      0.62%    100.00% # Request fanout histogram (Count)
system.l2_bus.snoopFanout::2                        0      0.00%    100.00% # Request fanout histogram (Count)
system.l2_bus.snoopFanout::overflows                0      0.00%    100.00% # Request fanout histogram (Count)
system.l2_bus.snoopFanout::min_value                0                       # Request fanout histogram (Count)
system.l2_bus.snoopFanout::max_value                1                       # Request fanout histogram (Count)
system.l2_bus.snoopFanout::total             15626729                       # Request fanout histogram (Count)
system.l2_bus.power_state.pwrStateResidencyTicks::UNDEFINED 1005930070000                       # Cumulative time (in ticks) in various power states (Tick)
system.l2_bus.reqLayer0.occupancy         39262098000                       # Layer occupancy (ticks) (Tick)
system.l2_bus.reqLayer0.utilization               0.0                       # Layer utilization (Ratio)
system.l2_bus.respLayer0.occupancy        19259718000                       # Layer occupancy (ticks) (Tick)
system.l2_bus.respLayer0.utilization              0.0                       # Layer utilization (Ratio)
system.l2_bus.respLayer1.occupancy        24025779000                       # Layer occupancy (ticks) (Tick)
system.l2_bus.respLayer1.utilization              0.0                       # Layer utilization (Ratio)
system.l2_bus.snoop_filter.totRequests       28856870                       # Total number of requests made to the snoop filter. (Count)
system.l2_bus.snoop_filter.hitSingleRequests     14428371                       # Number of requests hitting in the snoop filter with a single holder of the requested data. (Count)
system.l2_bus.snoop_filter.hitMultiRequests            0                       # Number of requests hitting in the snoop filter with multiple (>1) holders of the requested data. (Count)
system.l2_bus.snoop_filter.totSnoops            96796                       # Total number of snoops made to the snoop filter. (Count)
system.l2_bus.snoop_filter.hitSingleSnoops        96796                       # Number of snoops hitting in the snoop filter with a single holder of the requested data. (Count)
system.l2_bus.snoop_filter.hitMultiSnoops            0                       # Number of snoops hitting in the snoop filter with multiple (>1) holders of the requested data. (Count)
system.l2_cache.demandHits::cpu.inst          7466922                       # number of demand (read+write) hits (Count)
system.l2_cache.demandHits::cpu.data          5766652                       # number of demand (read+write) hits (Count)
system.l2_cache.demandHits::total            13233574                       # number of demand (read+write) hits (Count)
system.l2_cache.overallHits::cpu.inst         7466922                       # number of overall hits (Count)
system.l2_cache.overallHits::cpu.data         5766652                       # number of overall hits (Count)
system.l2_cache.overallHits::total           13233574                       # number of overall hits (Count)
system.l2_cache.demandMisses::cpu.inst         541671                       # number of demand (read+write) misses (Count)
system.l2_cache.demandMisses::cpu.data         653254                       # number of demand (read+write) misses (Count)
system.l2_cache.demandMisses::total           1194925                       # number of demand (read+write) misses (Count)
system.l2_cache.overallMisses::cpu.inst        541671                       # number of overall misses (Count)
system.l2_cache.overallMisses::cpu.data        653254                       # number of overall misses (Count)
system.l2_cache.overallMisses::total          1194925                       # number of overall misses (Count)
system.l2_cache.demandMissLatency::cpu.inst  37458245000                       # number of demand (read+write) miss ticks (Tick)
system.l2_cache.demandMissLatency::cpu.data  40862353000                       # number of demand (read+write) miss ticks (Tick)
system.l2_cache.demandMissLatency::total  78320598000                       # number of demand (read+write) miss ticks (Tick)
system.l2_cache.overallMissLatency::cpu.inst  37458245000                       # number of overall miss ticks (Tick)
system.l2_cache.overallMissLatency::cpu.data  40862353000                       # number of overall miss ticks (Tick)
system.l2_cache.overallMissLatency::total  78320598000                       # number of overall miss ticks (Tick)
system.l2_cache.demandAccesses::cpu.inst      8008593                       # number of demand (read+write) accesses (Count)
system.l2_cache.demandAccesses::cpu.data      6419906                       # number of demand (read+write) accesses (Count)
system.l2_cache.demandAccesses::total        14428499                       # number of demand (read+write) accesses (Count)
system.l2_cache.overallAccesses::cpu.inst      8008593                       # number of overall (read+write) accesses (Count)
system.l2_cache.overallAccesses::cpu.data      6419906                       # number of overall (read+write) accesses (Count)
system.l2_cache.overallAccesses::total       14428499                       # number of overall (read+write) accesses (Count)
system.l2_cache.demandMissRate::cpu.inst     0.067636                       # miss rate for demand accesses (Ratio)
system.l2_cache.demandMissRate::cpu.data     0.101754                       # miss rate for demand accesses (Ratio)
system.l2_cache.demandMissRate::total        0.082817                       # miss rate for demand accesses (Ratio)
system.l2_cache.overallMissRate::cpu.inst     0.067636                       # miss rate for overall accesses (Ratio)
system.l2_cache.overallMissRate::cpu.data     0.101754                       # miss rate for overall accesses (Ratio)
system.l2_cache.overallMissRate::total       0.082817                       # miss rate for overall accesses (Ratio)
system.l2_cache.demandAvgMissLatency::cpu.inst 69153.129852                       # average overall miss latency in ticks ((Tick/Count))
system.l2_cache.demandAvgMissLatency::cpu.data 62552.013459                       # average overall miss latency in ticks ((Tick/Count))
system.l2_cache.demandAvgMissLatency::total 65544.363035                       # average overall miss latency in ticks ((Tick/Count))
system.l2_cache.overallAvgMissLatency::cpu.inst 69153.129852                       # average overall miss latency ((Tick/Count))
system.l2_cache.overallAvgMissLatency::cpu.data 62552.013459                       # average overall miss latency ((Tick/Count))
system.l2_cache.overallAvgMissLatency::total 65544.363035                       # average overall miss latency ((Tick/Count))
system.l2_cache.blockedCycles::no_mshrs             0                       # number of cycles access was blocked (Cycle)
system.l2_cache.blockedCycles::no_targets            0                       # number of cycles access was blocked (Cycle)
system.l2_cache.blockedCauses::no_mshrs             0                       # number of times access was blocked (Count)
system.l2_cache.blockedCauses::no_targets            0                       # number of times access was blocked (Count)
system.l2_cache.avgBlocked::no_mshrs              nan                       # average number of cycles each access was blocked ((Cycle/Count))
system.l2_cache.avgBlocked::no_targets            nan                       # average number of cycles each access was blocked ((Cycle/Count))
system.l2_cache.writebacks::writebacks         471119                       # number of writebacks (Count)
system.l2_cache.writebacks::total              471119                       # number of writebacks (Count)
system.l2_cache.demandMshrMisses::cpu.inst       541671                       # number of demand (read+write) MSHR misses (Count)
system.l2_cache.demandMshrMisses::cpu.data       653254                       # number of demand (read+write) MSHR misses (Count)
system.l2_cache.demandMshrMisses::total       1194925                       # number of demand (read+write) MSHR misses (Count)
system.l2_cache.overallMshrMisses::cpu.inst       541671                       # number of overall MSHR misses (Count)
system.l2_cache.overallMshrMisses::cpu.data       653254                       # number of overall MSHR misses (Count)
system.l2_cache.overallMshrMisses::total      1194925                       # number of overall MSHR misses (Count)
system.l2_cache.demandMshrMissLatency::cpu.inst  36916574000                       # number of demand (read+write) MSHR miss ticks (Tick)
system.l2_cache.demandMshrMissLatency::cpu.data  40209099000                       # number of demand (read+write) MSHR miss ticks (Tick)
system.l2_cache.demandMshrMissLatency::total  77125673000                       # number of demand (read+write) MSHR miss ticks (Tick)
system.l2_cache.overallMshrMissLatency::cpu.inst  36916574000                       # number of overall MSHR miss ticks (Tick)
system.l2_cache.overallMshrMissLatency::cpu.data  40209099000                       # number of overall MSHR miss ticks (Tick)
system.l2_cache.overallMshrMissLatency::total  77125673000                       # number of overall MSHR miss ticks (Tick)
system.l2_cache.demandMshrMissRate::cpu.inst     0.067636                       # mshr miss ratio for demand accesses (Ratio)
system.l2_cache.demandMshrMissRate::cpu.data     0.101754                       # mshr miss ratio for demand accesses (Ratio)
system.l2_cache.demandMshrMissRate::total     0.082817                       # mshr miss ratio for demand accesses (Ratio)
system.l2_cache.overallMshrMissRate::cpu.inst     0.067636                       # mshr miss ratio for overall accesses (Ratio)
system.l2_cache.overallMshrMissRate::cpu.data     0.101754                       # mshr miss ratio for overall accesses (Ratio)
system.l2_cache.overallMshrMissRate::total     0.082817                       # mshr miss ratio for overall accesses (Ratio)
system.l2_cache.demandAvgMshrMissLatency::cpu.inst 68153.129852                       # average overall mshr miss latency ((Tick/Count))
system.l2_cache.demandAvgMshrMissLatency::cpu.data 61552.013459                       # average overall mshr miss latency ((Tick/Count))
system.l2_cache.demandAvgMshrMissLatency::total 64544.363035                       # average overall mshr miss latency ((Tick/Count))
system.l2_cache.overallAvgMshrMissLatency::cpu.inst 68153.129852                       # average overall mshr miss latency ((Tick/Count))
system.l2_cache.overallAvgMshrMissLatency::cpu.data 61552.013459                       # average overall mshr miss latency ((Tick/Count))
system.l2_cache.overallAvgMshrMissLatency::total 64544.363035                       # average overall mshr miss latency ((Tick/Count))
system.l2_cache.replacements                  1198230                       # number of replacements (Count)
system.l2_cache.CleanEvict.mshrMisses::writebacks        92975                       # number of CleanEvict MSHR misses (Count)
system.l2_cache.CleanEvict.mshrMisses::total        92975                       # number of CleanEvict MSHR misses (Count)
system.l2_cache.CleanEvict.mshrMissRate::writebacks          inf                       # mshr miss rate for CleanEvict accesses (Ratio)
system.l2_cache.CleanEvict.mshrMissRate::total          inf                       # mshr miss rate for CleanEvict accesses (Ratio)
system.l2_cache.ReadExReq.hits::cpu.data       866914                       # number of ReadExReq hits (Count)
system.l2_cache.ReadExReq.hits::total          866914                       # number of ReadExReq hits (Count)
system.l2_cache.ReadExReq.misses::cpu.data       304489                       # number of ReadExReq misses (Count)
system.l2_cache.ReadExReq.misses::total        304489                       # number of ReadExReq misses (Count)
system.l2_cache.ReadExReq.missLatency::cpu.data  18462234000                       # number of ReadExReq miss ticks (Tick)
system.l2_cache.ReadExReq.missLatency::total  18462234000                       # number of ReadExReq miss ticks (Tick)
system.l2_cache.ReadExReq.accesses::cpu.data      1171403                       # number of ReadExReq accesses(hits+misses) (Count)
system.l2_cache.ReadExReq.accesses::total      1171403                       # number of ReadExReq accesses(hits+misses) (Count)
system.l2_cache.ReadExReq.missRate::cpu.data     0.259935                       # miss rate for ReadExReq accesses (Ratio)
system.l2_cache.ReadExReq.missRate::total     0.259935                       # miss rate for ReadExReq accesses (Ratio)
system.l2_cache.ReadExReq.avgMissLatency::cpu.data 60633.500718                       # average ReadExReq miss latency ((Tick/Count))
system.l2_cache.ReadExReq.avgMissLatency::total 60633.500718                       # average ReadExReq miss latency ((Tick/Count))
system.l2_cache.ReadExReq.mshrMisses::cpu.data       304489                       # number of ReadExReq MSHR misses (Count)
system.l2_cache.ReadExReq.mshrMisses::total       304489                       # number of ReadExReq MSHR misses (Count)
system.l2_cache.ReadExReq.mshrMissLatency::cpu.data  18157745000                       # number of ReadExReq MSHR miss ticks (Tick)
system.l2_cache.ReadExReq.mshrMissLatency::total  18157745000                       # number of ReadExReq MSHR miss ticks (Tick)
system.l2_cache.ReadExReq.mshrMissRate::cpu.data     0.259935                       # mshr miss rate for ReadExReq accesses (Ratio)
system.l2_cache.ReadExReq.mshrMissRate::total     0.259935                       # mshr miss rate for ReadExReq accesses (Ratio)
system.l2_cache.ReadExReq.avgMshrMissLatency::cpu.data 59633.500718                       # average ReadExReq mshr miss latency ((Tick/Count))
system.l2_cache.ReadExReq.avgMshrMissLatency::total 59633.500718                       # average ReadExReq mshr miss latency ((Tick/Count))
system.l2_cache.ReadSharedReq.hits::cpu.inst      7466922                       # number of ReadSharedReq hits (Count)
system.l2_cache.ReadSharedReq.hits::cpu.data      4899738                       # number of ReadSharedReq hits (Count)
system.l2_cache.ReadSharedReq.hits::total     12366660                       # number of ReadSharedReq hits (Count)
system.l2_cache.ReadSharedReq.misses::cpu.inst       541671                       # number of ReadSharedReq misses (Count)
system.l2_cache.ReadSharedReq.misses::cpu.data       348765                       # number of ReadSharedReq misses (Count)
system.l2_cache.ReadSharedReq.misses::total       890436                       # number of ReadSharedReq misses (Count)
system.l2_cache.ReadSharedReq.missLatency::cpu.inst  37458245000                       # number of ReadSharedReq miss ticks (Tick)
system.l2_cache.ReadSharedReq.missLatency::cpu.data  22400119000                       # number of ReadSharedReq miss ticks (Tick)
system.l2_cache.ReadSharedReq.missLatency::total  59858364000                       # number of ReadSharedReq miss ticks (Tick)
system.l2_cache.ReadSharedReq.accesses::cpu.inst      8008593                       # number of ReadSharedReq accesses(hits+misses) (Count)
system.l2_cache.ReadSharedReq.accesses::cpu.data      5248503                       # number of ReadSharedReq accesses(hits+misses) (Count)
system.l2_cache.ReadSharedReq.accesses::total     13257096                       # number of ReadSharedReq accesses(hits+misses) (Count)
system.l2_cache.ReadSharedReq.missRate::cpu.inst     0.067636                       # miss rate for ReadSharedReq accesses (Ratio)
system.l2_cache.ReadSharedReq.missRate::cpu.data     0.066450                       # miss rate for ReadSharedReq accesses (Ratio)
system.l2_cache.ReadSharedReq.missRate::total     0.067167                       # miss rate for ReadSharedReq accesses (Ratio)
system.l2_cache.ReadSharedReq.avgMissLatency::cpu.inst 69153.129852                       # average ReadSharedReq miss latency ((Tick/Count))
system.l2_cache.ReadSharedReq.avgMissLatency::cpu.data 64226.969449                       # average ReadSharedReq miss latency ((Tick/Count))
system.l2_cache.ReadSharedReq.avgMissLatency::total 67223.656725                       # average ReadSharedReq miss latency ((Tick/Count))
system.l2_cache.ReadSharedReq.mshrMisses::cpu.inst       541671                       # number of ReadSharedReq MSHR misses (Count)
system.l2_cache.ReadSharedReq.mshrMisses::cpu.data       348765                       # number of ReadSharedReq MSHR misses (Count)
system.l2_cache.ReadSharedReq.mshrMisses::total       890436                       # number of ReadSharedReq MSHR misses (Count)
system.l2_cache.ReadSharedReq.mshrMissLatency::cpu.inst  36916574000                       # number of ReadSharedReq MSHR miss ticks (Tick)
system.l2_cache.ReadSharedReq.mshrMissLatency::cpu.data  22051354000                       # number of ReadSharedReq MSHR miss ticks (Tick)
system.l2_cache.ReadSharedReq.mshrMissLatency::total  58967928000                       # number of ReadSharedReq MSHR miss ticks (Tick)
system.l2_cache.ReadSharedReq.mshrMissRate::cpu.inst     0.067636                       # mshr miss rate for ReadSharedReq accesses (Ratio)
system.l2_cache.ReadSharedReq.mshrMissRate::cpu.data     0.066450                       # mshr miss rate for ReadSharedReq accesses (Ratio)
system.l2_cache.ReadSharedReq.mshrMissRate::total     0.067167                       # mshr miss rate for ReadSharedReq accesses (Ratio)
system.l2_cache.ReadSharedReq.avgMshrMissLatency::cpu.inst 68153.129852                       # average ReadSharedReq mshr miss latency ((Tick/Count))
system.l2_cache.ReadSharedReq.avgMshrMissLatency::cpu.data 63226.969449                       # average ReadSharedReq mshr miss latency ((Tick/Count))
system.l2_cache.ReadSharedReq.avgMshrMissLatency::total 66223.656725                       # average ReadSharedReq mshr miss latency ((Tick/Count))
system.l2_cache.WritebackDirty.hits::writebacks      5202614                       # number of WritebackDirty hits (Count)
system.l2_cache.WritebackDirty.hits::total      5202614                       # number of WritebackDirty hits (Count)
system.l2_cache.WritebackDirty.accesses::writebacks      5202614                       # number of WritebackDirty accesses(hits+misses) (Count)
system.l2_cache.WritebackDirty.accesses::total      5202614                       # number of WritebackDirty accesses(hits+misses) (Count)
system.l2_cache.power_state.pwrStateResidencyTicks::UNDEFINED 1005930070000                       # Cumulative time (in ticks) in various power states (Tick)
system.l2_cache.tags.tagsInUse             511.987643                       # Average ticks per tags in use ((Tick/Count))
system.l2_cache.tags.totalRefs               21566236                       # Total number of references to valid blocks. (Count)
system.l2_cache.tags.sampledRefs              1198230                       # Sample count of references to valid blocks. (Count)
system.l2_cache.tags.avgRefs                17.998411                       # Average number of references to valid blocks. ((Count/Count))
system.l2_cache.tags.warmupTick                 77000                       # The tick when the warmup percentage was hit. (Tick)
system.l2_cache.tags.occupancies::writebacks     5.141939                       # Average occupied blocks per tick, per requestor ((Count/Tick))
system.l2_cache.tags.occupancies::cpu.inst   184.480194                       # Average occupied blocks per tick, per requestor ((Count/Tick))
system.l2_cache.tags.occupancies::cpu.data   322.365510                       # Average occupied blocks per tick, per requestor ((Count/Tick))
system.l2_cache.tags.avgOccs::writebacks     0.010043                       # Average percentage of cache occupancy ((Ratio/Tick))
system.l2_cache.tags.avgOccs::cpu.inst       0.360313                       # Average percentage of cache occupancy ((Ratio/Tick))
system.l2_cache.tags.avgOccs::cpu.data       0.629620                       # Average percentage of cache occupancy ((Ratio/Tick))
system.l2_cache.tags.avgOccs::total          0.999976                       # Average percentage of cache occupancy ((Ratio/Tick))
system.l2_cache.tags.occupanciesTaskId::1024          512                       # Occupied blocks per task id (Count)
system.l2_cache.tags.ageTaskId_1024::0             56                       # Occupied blocks per task id, per block age (Count)
system.l2_cache.tags.ageTaskId_1024::1             34                       # Occupied blocks per task id, per block age (Count)
system.l2_cache.tags.ageTaskId_1024::2            240                       # Occupied blocks per task id, per block age (Count)
system.l2_cache.tags.ageTaskId_1024::3             41                       # Occupied blocks per task id, per block age (Count)
system.l2_cache.tags.ageTaskId_1024::4            141                       # Occupied blocks per task id, per block age (Count)
system.l2_cache.tags.ratioOccsTaskId::1024            1                       # Ratio of occupied blocks and all blocks, per task id (Ratio)
system.l2_cache.tags.tagAccesses            232053702                       # Number of tag accesses (Count)
system.l2_cache.tags.dataAccesses           232053702                       # Number of data accesses (Count)
system.l2_cache.tags.power_state.pwrStateResidencyTicks::UNDEFINED 1005930070000                       # Cumulative time (in ticks) in various power states (Tick)
system.mem_ctrl.avgPriority_writebacks::samples    469930.00                       # Average QoS priority value for accepted requests (Count)
system.mem_ctrl.avgPriority_cpu.inst::samples    541671.00                       # Average QoS priority value for accepted requests (Count)
system.mem_ctrl.avgPriority_cpu.data::samples    522352.00                       # Average QoS priority value for accepted requests (Count)
system.mem_ctrl.priorityMinLatency       0.000000018750                       # per QoS priority minimum request to response latency (Second)
system.mem_ctrl.priorityMaxLatency       0.000772248750                       # per QoS priority maximum request to response latency (Second)
system.mem_ctrl.numReadWriteTurnArounds         27450                       # Number of turnarounds from READ to WRITE (Count)
system.mem_ctrl.numWriteReadTurnArounds         27450                       # Number of turnarounds from WRITE to READ (Count)
system.mem_ctrl.numStayReadState              2844053                       # Number of times bus staying in READ state (Count)
system.mem_ctrl.numStayWriteState              442579                       # Number of times bus staying in WRITE state (Count)
system.mem_ctrl.readReqs                      1194925                       # Number of read requests accepted (Count)
system.mem_ctrl.writeReqs                      471119                       # Number of write requests accepted (Count)
system.mem_ctrl.readBursts                    1194925                       # Number of controller read bursts, including those serviced by the write queue (Count)
system.mem_ctrl.writeBursts                    471119                       # Number of controller write bursts, including those merged in the write queue (Count)
system.mem_ctrl.servicedByWrQ                  130902                       # Number of controller read bursts serviced by the write queue (Count)
system.mem_ctrl.mergedWrBursts                   1189                       # Number of controller write bursts merged with an existing one (Count)
system.mem_ctrl.neitherReadNorWriteReqs             0                       # Number of requests that are neither read nor write (Count)
system.mem_ctrl.avgRdQLen                        1.00                       # Average read queue length when enqueuing ((Count/Tick))
system.mem_ctrl.avgWrQLen                       24.87                       # Average write queue length when enqueuing ((Count/Tick))
system.mem_ctrl.numRdRetry                          0                       # Number of times read queue was full causing retry (Count)
system.mem_ctrl.numWrRetry                          0                       # Number of times write queue was full causing retry (Count)
system.mem_ctrl.readPktSize::0                      0                       # Read request sizes (log2) (Count)
system.mem_ctrl.readPktSize::1                      0                       # Read request sizes (log2) (Count)
system.mem_ctrl.readPktSize::2                      0                       # Read request sizes (log2) (Count)
system.mem_ctrl.readPktSize::3                      0                       # Read request sizes (log2) (Count)
system.mem_ctrl.readPktSize::4                      0                       # Read request sizes (log2) (Count)
system.mem_ctrl.readPktSize::5                      0                       # Read request sizes (log2) (Count)
system.mem_ctrl.readPktSize::6                1194925                       # Read request sizes (log2) (Count)
system.mem_ctrl.writePktSize::0                     0                       # Write request sizes (log2) (Count)
system.mem_ctrl.writePktSize::1                     0                       # Write request sizes (log2) (Count)
system.mem_ctrl.writePktSize::2                     0                       # Write request sizes (log2) (Count)
system.mem_ctrl.writePktSize::3                     0                       # Write request sizes (log2) (Count)
system.mem_ctrl.writePktSize::4                     0                       # Write request sizes (log2) (Count)
system.mem_ctrl.writePktSize::5                     0                       # Write request sizes (log2) (Count)
system.mem_ctrl.writePktSize::6                471119                       # Write request sizes (log2) (Count)
system.mem_ctrl.rdQLenPdf::0                  1064021                       # What read queue length does an incoming req see (Count)
system.mem_ctrl.rdQLenPdf::1                        2                       # What read queue length does an incoming req see (Count)
system.mem_ctrl.rdQLenPdf::2                        0                       # What read queue length does an incoming req see (Count)
system.mem_ctrl.rdQLenPdf::3                        0                       # What read queue length does an incoming req see (Count)
system.mem_ctrl.rdQLenPdf::4                        0                       # What read queue length does an incoming req see (Count)
system.mem_ctrl.rdQLenPdf::5                        0                       # What read queue length does an incoming req see (Count)
system.mem_ctrl.rdQLenPdf::6                        0                       # What read queue length does an incoming req see (Count)
system.mem_ctrl.rdQLenPdf::7                        0                       # What read queue length does an incoming req see (Count)
system.mem_ctrl.rdQLenPdf::8                        0                       # What read queue length does an incoming req see (Count)
system.mem_ctrl.rdQLenPdf::9                        0                       # What read queue length does an incoming req see (Count)
system.mem_ctrl.rdQLenPdf::10                       0                       # What read queue length does an incoming req see (Count)
system.mem_ctrl.rdQLenPdf::11                       0                       # What read queue length does an incoming req see (Count)
system.mem_ctrl.rdQLenPdf::12                       0                       # What read queue length does an incoming req see (Count)
system.mem_ctrl.rdQLenPdf::13                       0                       # What read queue length does an incoming req see (Count)
system.mem_ctrl.rdQLenPdf::14                       0                       # What read queue length does an incoming req see (Count)
system.mem_ctrl.rdQLenPdf::15                       0                       # What read queue length does an incoming req see (Count)
system.mem_ctrl.rdQLenPdf::16                       0                       # What read queue length does an incoming req see (Count)
system.mem_ctrl.rdQLenPdf::17                       0                       # What read queue length does an incoming req see (Count)
system.mem_ctrl.rdQLenPdf::18                       0                       # What read queue length does an incoming req see (Count)
system.mem_ctrl.rdQLenPdf::19                       0                       # What read queue length does an incoming req see (Count)
system.mem_ctrl.rdQLenPdf::20                       0                       # What read queue length does an incoming req see (Count)
system.mem_ctrl.rdQLenPdf::21                       0                       # What read queue length does an incoming req see (Count)
system.mem_ctrl.rdQLenPdf::22                       0                       # What read queue length does an incoming req see (Count)
system.mem_ctrl.rdQLenPdf::23                       0                       # What read queue length does an incoming req see (Count)
system.mem_ctrl.rdQLenPdf::24                       0                       # What read queue length does an incoming req see (Count)
system.mem_ctrl.rdQLenPdf::25                       0                       # What read queue length does an incoming req see (Count)
system.mem_ctrl.rdQLenPdf::26                       0                       # What read queue length does an incoming req see (Count)
system.mem_ctrl.rdQLenPdf::27                       0                       # What read queue length does an incoming req see (Count)
system.mem_ctrl.rdQLenPdf::28                       0                       # What read queue length does an incoming req see (Count)
system.mem_ctrl.rdQLenPdf::29                       0                       # What read queue length does an incoming req see (Count)
system.mem_ctrl.rdQLenPdf::30                       0                       # What read queue length does an incoming req see (Count)
[...]
system.mem_ctrl.dram.bytesWritten::total        29248                       # Number of bytes written to this memory (Byte)
system.mem_ctrl.dram.numReads::cpu.inst           848                       # Number of read requests responded to by this memory (Count)
system.mem_ctrl.dram.numReads::cpu.data           947                       # Number of read requests responded to by this memory (Count)
system.mem_ctrl.dram.numReads::total             1795                       # Number of read requests responded to by this memory (Count)
system.mem_ctrl.dram.numWrites::writebacks          457                       # Number of write requests responded to by this memory (Count)
system.mem_ctrl.dram.numWrites::total             457                       # Number of write requests responded to by this memory (Count)
system.mem_ctrl.dram.bwRead::cpu.inst       213264592                       # Total read bandwidth from this memory ((Byte/Second))
system.mem_ctrl.dram.bwRead::cpu.data       238162228                       # Total read bandwidth from this memory ((Byte/Second))
system.mem_ctrl.dram.bwRead::total          451426820                       # Total read bandwidth from this memory ((Byte/Second))
system.mem_ctrl.dram.bwInstRead::cpu.inst    213264592                       # Instruction read bandwidth from this memory ((Byte/Second))
system.mem_ctrl.dram.bwInstRead::total      213264592                       # Instruction read bandwidth from this memory ((Byte/Second))
system.mem_ctrl.dram.bwWrite::writebacks    114931508                       # Write bandwidth from this memory ((Byte/Second))
system.mem_ctrl.dram.bwWrite::total         114931508                       # Write bandwidth from this memory ((Byte/Second))
system.mem_ctrl.dram.bwTotal::writebacks    114931508                       # Total bandwidth to/from this memory ((Byte/Second))
system.mem_ctrl.dram.bwTotal::cpu.inst      213264592                       # Total bandwidth to/from this memory ((Byte/Second))
system.mem_ctrl.dram.bwTotal::cpu.data      238162228                       # Total bandwidth to/from this memory ((Byte/Second))
system.mem_ctrl.dram.bwTotal::total         566358328                       # Total bandwidth to/from this memory ((Byte/Second))
system.mem_ctrl.dram.readBursts                  1773                       # Number of DRAM read bursts (Count)
system.mem_ctrl.dram.writeBursts                  464                       # Number of DRAM write bursts (Count)
system.mem_ctrl.dram.perBankRdBursts::0           140                       # Per bank write bursts (Count)
system.mem_ctrl.dram.perBankRdBursts::1            78                       # Per bank write bursts (Count)
system.mem_ctrl.dram.perBankRdBursts::2           107                       # Per bank write bursts (Count)
system.mem_ctrl.dram.perBankRdBursts::3            79                       # Per bank write bursts (Count)
system.mem_ctrl.dram.perBankRdBursts::4           112                       # Per bank write bursts (Count)
system.mem_ctrl.dram.perBankRdBursts::5           197                       # Per bank write bursts (Count)
system.mem_ctrl.dram.perBankRdBursts::6           132                       # Per bank write bursts (Count)
system.mem_ctrl.dram.perBankRdBursts::7           171                       # Per bank write bursts (Count)
system.mem_ctrl.dram.perBankRdBursts::8            62                       # Per bank write bursts (Count)
system.mem_ctrl.dram.perBankRdBursts::9            91                       # Per bank write bursts (Count)
system.mem_ctrl.dram.perBankRdBursts::10           63                       # Per bank write bursts (Count)
system.mem_ctrl.dram.perBankRdBursts::11           76                       # Per bank write bursts (Count)
system.mem_ctrl.dram.perBankRdBursts::12           63                       # Per bank write bursts (Count)
system.mem_ctrl.dram.perBankRdBursts::13          151                       # Per bank write bursts (Count)
system.mem_ctrl.dram.perBankRdBursts::14           80                       # Per bank write bursts (Count)
system.mem_ctrl.dram.perBankRdBursts::15          171                       # Per bank write bursts (Count)
system.mem_ctrl.dram.perBankWrBursts::0            30                       # Per bank write bursts (Count)
system.mem_ctrl.dram.perBankWrBursts::1            42                       # Per bank write bursts (Count)
system.mem_ctrl.dram.perBankWrBursts::2             0                       # Per bank write bursts (Count)
system.mem_ctrl.dram.perBankWrBursts::3            69                       # Per bank write bursts (Count)
system.mem_ctrl.dram.perBankWrBursts::4            84                       # Per bank write bursts (Count)
system.mem_ctrl.dram.perBankWrBursts::5             1                       # Per bank write bursts (Count)
system.mem_ctrl.dram.perBankWrBursts::6            63                       # Per bank write bursts (Count)
system.mem_ctrl.dram.perBankWrBursts::7            68                       # Per bank write bursts (Count)
system.mem_ctrl.dram.perBankWrBursts::8             0                       # Per bank write bursts (Count)
system.mem_ctrl.dram.perBankWrBursts::9            10                       # Per bank write bursts (Count)
system.mem_ctrl.dram.perBankWrBursts::10            0                       # Per bank write bursts (Count)
system.mem_ctrl.dram.perBankWrBursts::11            0                       # Per bank write bursts (Count)
system.mem_ctrl.dram.perBankWrBursts::12            4                       # Per bank write bursts (Count)
system.mem_ctrl.dram.perBankWrBursts::13           54                       # Per bank write bursts (Count)
system.mem_ctrl.dram.perBankWrBursts::14            0                       # Per bank write bursts (Count)
system.mem_ctrl.dram.perBankWrBursts::15           39                       # Per bank write bursts (Count)
system.mem_ctrl.dram.totQLat                 22690250                       # Total ticks spent queuing (Tick)
system.mem_ctrl.dram.totBusLat                8865000                       # Total ticks spent in databus transfers (Tick)
system.mem_ctrl.dram.totMemAccLat            55934000                       # Total ticks spent from burst creation until serviced by the DRAM (Tick)
system.mem_ctrl.dram.avgQLat                 12797.66                       # Average queueing delay per DRAM burst ((Tick/Count))
system.mem_ctrl.dram.avgBusLat                5000.00                       # Average bus latency per DRAM burst ((Tick/Count))
system.mem_ctrl.dram.avgMemAccLat            31547.66                       # Average memory access latency per DRAM burst ((Tick/Count))
system.mem_ctrl.dram.readRowHits                 1032                       # Number of row buffer hits during reads (Count)
system.mem_ctrl.dram.writeRowHits                 366                       # Number of row buffer hits during writes (Count)
system.mem_ctrl.dram.readRowHitRate             58.21                       # Row buffer hit rate for reads (Ratio)
system.mem_ctrl.dram.writeRowHitRate            78.88                       # Row buffer hit rate for writes (Ratio)
system.mem_ctrl.dram.bytesPerActivate::samples          838                       # Bytes accessed per row activation (Byte)
system.mem_ctrl.dram.bytesPerActivate::mean   171.379475                       # Bytes accessed per row activation (Byte)
system.mem_ctrl.dram.bytesPerActivate::gmean   118.261873                       # Bytes accessed per row activation (Byte)
system.mem_ctrl.dram.bytesPerActivate::stdev   193.371537                       # Bytes accessed per row activation (Byte)
system.mem_ctrl.dram.bytesPerActivate::0-127          431     51.43%     51.43% # Bytes accessed per row activation (Byte)
system.mem_ctrl.dram.bytesPerActivate::128-255          235     28.04%     79.47% # Bytes accessed per row activation (Byte)
system.mem_ctrl.dram.bytesPerActivate::256-383           77      9.19%     88.66% # Bytes accessed per row activation (Byte)
system.mem_ctrl.dram.bytesPerActivate::384-511           32      3.82%     92.48% # Bytes accessed per row activation (Byte)
system.mem_ctrl.dram.bytesPerActivate::512-639           17      2.03%     94.51% # Bytes accessed per row activation (Byte)
system.mem_ctrl.dram.bytesPerActivate::640-767           20      2.39%     96.90% # Bytes accessed per row activation (Byte)
system.mem_ctrl.dram.bytesPerActivate::768-895            7      0.84%     97.73% # Bytes accessed per row activation (Byte)
system.mem_ctrl.dram.bytesPerActivate::896-1023            6      0.72%     98.45% # Bytes accessed per row activation (Byte)
system.mem_ctrl.dram.bytesPerActivate::1024-1151           13      1.55%    100.00% # Bytes accessed per row activation (Byte)
system.mem_ctrl.dram.bytesPerActivate::total          838                       # Bytes accessed per row activation (Byte)
system.mem_ctrl.dram.dramBytesRead             113472                       # Total bytes read (Byte)
system.mem_ctrl.dram.dramBytesWritten           29696                       # Total bytes written (Byte)
system.mem_ctrl.dram.avgRdBW               445.894012                       # Average DRAM read bandwidth in MiBytes/s ((Byte/Second))
system.mem_ctrl.dram.avgWrBW               116.691947                       # Average DRAM write bandwidth in MiBytes/s ((Byte/Second))
system.mem_ctrl.dram.peakBW                  12800.00                       # Theoretical peak bandwidth in MiByte/s ((Byte/Second))
system.mem_ctrl.dram.busUtil                     4.40                       # Data bus utilization in percentage (Ratio)
system.mem_ctrl.dram.busUtilRead                 3.48                       # Data bus utilization in percentage for reads (Ratio)
system.mem_ctrl.dram.busUtilWrite                0.91                       # Data bus utilization in percentage for writes (Ratio)
system.mem_ctrl.dram.pageHitRate                62.49                       # Row buffer hit rate, read and write combined (Ratio)
system.mem_ctrl.dram.power_state.pwrStateResidencyTicks::UNDEFINED    254482000                       # Cumulative time (in ticks) in various power states (Tick)
system.mem_ctrl.dram.rank0.actEnergy          3348660                       # Energy for activate commands per rank (pJ) (Joule)
system.mem_ctrl.dram.rank0.preEnergy          1776060                       # Energy for precharge commands per rank (pJ) (Joule)
system.mem_ctrl.dram.rank0.readEnergy         7254240                       # Energy for read commands per rank (pJ) (Joule)
system.mem_ctrl.dram.rank0.writeEnergy        1863540                       # Energy for write commands per rank (pJ) (Joule)
system.mem_ctrl.dram.rank0.refreshEnergy 20283120.000000                       # Energy for refresh commands per rank (pJ) (Joule)
system.mem_ctrl.dram.rank0.actBackEnergy    112185120                       # Energy for active background per rank (pJ) (Joule)
system.mem_ctrl.dram.rank0.preBackEnergy      3249600                       # Energy for precharge background per rank (pJ) (Joule)
system.mem_ctrl.dram.rank0.actPowerDownEnergy            0                       # Energy for active power-down per rank (pJ) (Joule)
system.mem_ctrl.dram.rank0.prePowerDownEnergy            0                       # Energy for precharge power-down per rank (pJ) (Joule)
system.mem_ctrl.dram.rank0.selfRefreshEnergy            0                       # Energy for self refresh per rank (pJ) (Joule)
system.mem_ctrl.dram.rank0.totalEnergy      149960340                       # Total energy per rank (pJ) (Joule)
system.mem_ctrl.dram.rank0.averagePower    589.276805                       # Core power per rank (mW) (Watt)
system.mem_ctrl.dram.rank0.totalIdleTime            0                       # Total Idle time Per DRAM Rank (Tick)
system.mem_ctrl.dram.rank0.pwrStateTime::IDLE      7492750                       # Time in different power states (Tick)
system.mem_ctrl.dram.rank0.pwrStateTime::REF      8580000                       # Time in different power states (Tick)
system.mem_ctrl.dram.rank0.pwrStateTime::SREF            0                       # Time in different power states (Tick)
system.mem_ctrl.dram.rank0.pwrStateTime::PRE_PDN            0                       # Time in different power states (Tick)
system.mem_ctrl.dram.rank0.pwrStateTime::ACT    238409250                       # Time in different power states (Tick)
system.mem_ctrl.dram.rank0.pwrStateTime::ACT_PDN            0                       # Time in different power states (Tick)
system.mem_ctrl.dram.rank1.actEnergy          2641800                       # Energy for activate commands per rank (pJ) (Joule)
system.mem_ctrl.dram.rank1.preEnergy          1404150                       # Energy for precharge commands per rank (pJ) (Joule)
system.mem_ctrl.dram.rank1.readEnergy         5404980                       # Energy for read commands per rank (pJ) (Joule)
system.mem_ctrl.dram.rank1.writeEnergy         558540                       # Energy for write commands per rank (pJ) (Joule)
system.mem_ctrl.dram.rank1.refreshEnergy 20283120.000000                       # Energy for refresh commands per rank (pJ) (Joule)
system.mem_ctrl.dram.rank1.actBackEnergy    100893420                       # Energy for active background per rank (pJ) (Joule)
system.mem_ctrl.dram.rank1.preBackEnergy     12758400                       # Energy for precharge background per rank (pJ) (Joule)
system.mem_ctrl.dram.rank1.actPowerDownEnergy            0                       # Energy for active power-down per rank (pJ) (Joule)
system.mem_ctrl.dram.rank1.prePowerDownEnergy            0                       # Energy for precharge power-down per rank (pJ) (Joule)
system.mem_ctrl.dram.rank1.selfRefreshEnergy            0                       # Energy for self refresh per rank (pJ) (Joule)
system.mem_ctrl.dram.rank1.totalEnergy      143944410                       # Total energy per rank (pJ) (Joule)
system.mem_ctrl.dram.rank1.averagePower    565.636902                       # Core power per rank (mW) (Watt)
system.mem_ctrl.dram.rank1.totalIdleTime            0                       # Total Idle time Per DRAM Rank (Tick)
system.mem_ctrl.dram.rank1.pwrStateTime::IDLE     32251500                       # Time in different power states (Tick)
system.mem_ctrl.dram.rank1.pwrStateTime::REF      8580000                       # Time in different power states (Tick)
system.mem_ctrl.dram.rank1.pwrStateTime::SREF            0                       # Time in different power states (Tick)
system.mem_ctrl.dram.rank1.pwrStateTime::PRE_PDN            0                       # Time in different power states (Tick)
system.mem_ctrl.dram.rank1.pwrStateTime::ACT    213650500                       # Time in different power states (Tick)
system.mem_ctrl.dram.rank1.pwrStateTime::ACT_PDN            0                       # Time in different power states (Tick)
system.mem_ctrl.power_state.pwrStateResidencyTicks::UNDEFINED    254482000                       # Cumulative time (in ticks) in various power states (Tick)
system.membus.transDist::ReadResp                1735                       # Transaction distribution (Count)
system.membus.transDist::WritebackDirty           457                       # Transaction distribution (Count)
system.membus.transDist::CleanEvict              1344                       # Transaction distribution (Count)
system.membus.transDist::ReadExReq                 60                       # Transaction distribution (Count)
system.membus.transDist::ReadExResp                60                       # Transaction distribution (Count)
system.membus.transDist::ReadSharedReq           1735                       # Transaction distribution (Count)
system.membus.pktCount_system.l2_cache.mem_side_port::system.mem_ctrl.port         5391                       # Packet count per connected requestor and responder (Count)
system.membus.pktCount_system.l2_cache.mem_side_port::total         5391                       # Packet count per connected requestor and responder (Count)
system.membus.pktCount::total                    5391                       # Packet count per connected requestor and responder (Count)
system.membus.pktSize_system.l2_cache.mem_side_port::system.mem_ctrl.port       144128                       # Cumulative packet size per connected requestor and responder (Byte)
system.membus.pktSize_system.l2_cache.mem_side_port::total       144128                       # Cumulative packet size per connected requestor and responder (Byte)
system.membus.pktSize::total                   144128                       # Cumulative packet size per connected requestor and responder (Byte)
system.membus.snoops                                0                       # Total snoops (Count)
system.membus.snoopTraffic                          0                       # Total snoop traffic (Byte)
system.membus.snoopFanout::samples               1795                       # Request fanout histogram (Count)
system.membus.snoopFanout::mean                     0                       # Request fanout histogram (Count)
system.membus.snoopFanout::stdev                    0                       # Request fanout histogram (Count)
system.membus.snoopFanout::underflows               0      0.00%      0.00% # Request fanout histogram (Count)
system.membus.snoopFanout::0                     1795    100.00%    100.00% # Request fanout histogram (Count)
system.membus.snoopFanout::1                        0      0.00%    100.00% # Request fanout histogram (Count)
system.membus.snoopFanout::overflows                0      0.00%    100.00% # Request fanout histogram (Count)
system.membus.snoopFanout::min_value                0                       # Request fanout histogram (Count)
system.membus.snoopFanout::max_value                0                       # Request fanout histogram (Count)
system.membus.snoopFanout::total                 1795                       # Request fanout histogram (Count)
system.membus.power_state.pwrStateResidencyTicks::UNDEFINED    254482000                       # Cumulative time (in ticks) in various power states (Tick)
system.membus.reqLayer2.occupancy             5424000                       # Layer occupancy (ticks) (Tick)
system.membus.reqLayer2.utilization               0.0                       # Layer utilization (Ratio)
system.membus.respLayer2.occupancy            9687000                       # Layer occupancy (ticks) (Tick)
system.membus.respLayer2.utilization              0.0                       # Layer utilization (Ratio)
system.membus.snoop_filter.totRequests           3596                       # Total number of requests made to the snoop filter. (Count)
system.membus.snoop_filter.hitSingleRequests         1801                       # Number of requests hitting in the snoop filter with a single holder of the requested data. (Count)
system.membus.snoop_filter.hitMultiRequests            0                       # Number of requests hitting in the snoop filter with multiple (>1) holders of the requested data. (Count)
system.membus.snoop_filter.totSnoops                0                       # Total number of snoops made to the snoop filter. (Count)
system.membus.snoop_filter.hitSingleSnoops            0                       # Number of snoops hitting in the snoop filter with a single holder of the requested data. (Count)
system.membus.snoop_filter.hitMultiSnoops            0                       # Number of snoops hitting in the snoop filter with multiple (>1) holders of the requested data. (Count)
system.workload.inst.arm                            0                       # number of arm instructions executed (Count)
system.workload.inst.quiesce                        0                       # number of quiesce instructions executed (Count)

---------- End Simulation Statistics   ----------
