
---------- Begin Simulation Statistics ----------
simSeconds                                   1.015897                       # Number of seconds simulated (Second)
simTicks                                 1015897200000                       # Number of ticks simulated (Tick)
finalTick                                1015897200000                       # Number of ticks from beginning of simulation (restored from checkpoints and never reset) (Tick)
simFreq                                  1000000000000                       # The number of ticks per simulated second ((Tick/Second))
hostSeconds                                   3726.79                       # Real time elapsed on the host (Second)
hostTickRate                                272593378                       # The number of ticks simulated per host second (ticks/s) ((Tick/Second))
hostMemory                                    9264420                       # Number of bytes of host memory used (Byte)
simInsts                                    861347334                       # Number of instructions simulated (Count)
simOps                                     1971247916                       # Number of ops (including micro ops) simulated (Count)
hostInstRate                                   231123                       # Simulator instruction rate (inst/s) ((Count/Second))
hostOpRate                                     528940                       # Simulator op (including micro ops) rate (op/s) ((Count/Second))
system.clk_domain.clock                          1000                       # Clock period in ticks (Tick)
system.clk_domain.voltage_domain.voltage            1                       # Voltage in Volts (Volt)
system.cpu.numCycles                       1015897201                       # Number of cpu cycles simulated (Cycle)
system.cpu.cpi                               1.179428                       # CPI: cycles per instruction (core level) ((Cycle/Count))
system.cpu.ipc                               0.847869                       # IPC: instructions per cycle (core level) ((Count/Cycle))
system.cpu.numWorkItemsStarted                      0                       # Number of work items this cpu started (Count)
system.cpu.numWorkItemsCompleted                    0                       # Number of work items this cpu completed (Count)
system.cpu.instsAdded                      2702218892                       # Number of instructions added to the IQ (excludes non-spec) (Count)
system.cpu.nonSpecInstsAdded                    20177                       # Number of non-speculative instructions added to the IQ (Count)
system.cpu.instsIssued                     2350952005                       # Number of instructions issued (Count)
system.cpu.squashedInstsIssued                2954298                       # Number of squashed instructions issued (Count)
system.cpu.squashedInstsExamined            730991131                       # Number of squashed instructions iterated over during squash; mainly for profiling (Count)
system.cpu.squashedOperandsExamined        1699702676                       # Number of squashed operands that are examined and possibly removed from graph (Count)
system.cpu.squashedNonSpecRemoved               12019                       # Number of squashed non-spec instructions that were removed (Count)
system.cpu.numIssuedDist::samples          1010599415                       # Number of insts issued each cycle (Count)
system.cpu.numIssuedDist::mean               2.326295                       # Number of insts issued each cycle (Count)
system.cpu.numIssuedDist::stdev              2.641803                       # Number of insts issued each cycle (Count)
system.cpu.numIssuedDist::underflows                0      0.00%      0.00% # Number of insts issued each cycle (Count)
system.cpu.numIssuedDist::0                 453963417     44.92%     44.92% # Number of insts issued each cycle (Count)
system.cpu.numIssuedDist::1                  81114046      8.03%     52.95% # Number of insts issued each cycle (Count)
system.cpu.numIssuedDist::2                  58816739      5.82%     58.77% # Number of insts issued each cycle (Count)
system.cpu.numIssuedDist::3                  62214926      6.16%     64.92% # Number of insts issued each cycle (Count)
system.cpu.numIssuedDist::4                 129889500     12.85%     77.78% # Number of insts issued each cycle (Count)
system.cpu.numIssuedDist::5                  52952184      5.24%     83.02% # Number of insts issued each cycle (Count)
system.cpu.numIssuedDist::6                  68732186      6.80%     89.82% # Number of insts issued each cycle (Count)
system.cpu.numIssuedDist::7                  54483669      5.39%     95.21% # Number of insts issued each cycle (Count)
system.cpu.numIssuedDist::8                  48432748      4.79%    100.00% # Number of insts issued each cycle (Count)
system.cpu.numIssuedDist::overflows                 0      0.00%    100.00% # Number of insts issued each cycle (Count)
system.cpu.numIssuedDist::min_value                 0                       # Number of insts issued each cycle (Count)
system.cpu.numIssuedDist::max_value                 8                       # Number of insts issued each cycle (Count)
system.cpu.numIssuedDist::total            1010599415                       # Number of insts issued each cycle (Count)
system.cpu.statFuBusy::No_OpClass                   0      0.00%      0.00% # attempts to use FU when none available (Count)
system.cpu.statFuBusy::IntAlu                47411582     87.02%     87.02% # attempts to use FU when none available (Count)
system.cpu.statFuBusy::IntMult                      0      0.00%     87.02% # attempts to use FU when none available (Count)
system.cpu.statFuBusy::IntDiv                       0      0.00%     87.02% # attempts to use FU when none available (Count)
system.cpu.statFuBusy::FloatAdd                     0      0.00%     87.02% # attempts to use FU when none available (Count)
system.cpu.statFuBusy::FloatCmp                     0      0.00%     87.02% # attempts to use FU when none available (Count)
system.cpu.statFuBusy::FloatCvt                     0      0.00%     87.02% # attempts to use FU when none available (Count)
system.cpu.statFuBusy::FloatMult                    0      0.00%     87.02% # attempts to use FU when none available (Count)
system.cpu.statFuBusy::FloatMultAcc                 0      0.00%     87.02% # attempts to use FU when none available (Count)
system.cpu.statFuBusy::FloatDiv                     0      0.00%     87.02% # attempts to use FU when none available (Count)
system.cpu.statFuBusy::FloatMisc                    0      0.00%     87.02% # attempts to use FU when none available (Count)
system.cpu.statFuBusy::FloatSqrt                    0      0.00%     87.02% # attempts to use FU when none available (Count)
system.cpu.statFuBusy::SimdAdd                     37      0.00%     87.02% # attempts to use FU when none available (Count)
system.cpu.statFuBusy::SimdAddAcc                   0      0.00%     87.02% # attempts to use FU when none available (Count)
system.cpu.statFuBusy::SimdAlu                 141887      0.26%     87.28% # attempts to use FU when none available (Count)
system.cpu.statFuBusy::SimdCmp                      8      0.00%     87.28% # attempts to use FU when none available (Count)
system.cpu.statFuBusy::SimdCvt                  22295      0.04%     87.32% # attempts to use FU when none available (Count)
system.cpu.statFuBusy::SimdMisc                 24328      0.04%     87.36% # attempts to use FU when none available (Count)
system.cpu.statFuBusy::SimdMult                     0      0.00%     87.36% # attempts to use FU when none available (Count)
system.cpu.statFuBusy::SimdMultAcc                  0      0.00%     87.36% # attempts to use FU when none available (Count)
system.cpu.statFuBusy::SimdMatMultAcc               0      0.00%     87.36% # attempts to use FU when none available (Count)
system.cpu.statFuBusy::SimdShift                 4363      0.01%     87.37% # attempts to use FU when none available (Count)
system.cpu.statFuBusy::SimdShiftAcc                 0      0.00%     87.37% # attempts to use FU when none available (Count)
system.cpu.statFuBusy::SimdDiv                      0      0.00%     87.37% # attempts to use FU when none available (Count)
system.cpu.statFuBusy::SimdSqrt                     0      0.00%     87.37% # attempts to use FU when none available (Count)
system.cpu.statFuBusy::SimdFloatAdd                 0      0.00%     87.37% # attempts to use FU when none available (Count)
system.cpu.statFuBusy::SimdFloatAlu                 0      0.00%     87.37% # attempts to use FU when none available (Count)
system.cpu.statFuBusy::SimdFloatCmp                 0      0.00%     87.37% # attempts to use FU when none available (Count)
system.cpu.statFuBusy::SimdFloatCvt                 0      0.00%     87.37% # attempts to use FU when none available (Count)
system.cpu.statFuBusy::SimdFloatDiv                 0      0.00%     87.37% # attempts to use FU when none available (Count)
system.cpu.statFuBusy::SimdFloatMisc                0      0.00%     87.37% # attempts to use FU when none available (Count)
system.cpu.statFuBusy::SimdFloatMult                0      0.00%     87.37% # attempts to use FU when none available (Count)
system.cpu.statFuBusy::SimdFloatMultAcc             0      0.00%     87.37% # attempts to use FU when none available (Count)
system.cpu.statFuBusy::SimdFloatMatMultAcc            0      0.00%     87.37% # attempts to use FU when none available (Count)
system.cpu.statFuBusy::SimdFloatSqrt                0      0.00%     87.37% # attempts to use FU when none available (Count)
system.cpu.statFuBusy::SimdReduceAdd                0      0.00%     87.37% # attempts to use FU when none available (Count)
system.cpu.statFuBusy::SimdReduceAlu                0      0.00%     87.37% # attempts to use FU when none available (Count)
system.cpu.statFuBusy::SimdReduceCmp                0      0.00%     87.37% # attempts to use FU when none available (Count)
system.cpu.statFuBusy::SimdFloatReduceAdd            0      0.00%     87.37% # attempts to use FU when none available (Count)
system.cpu.statFuBusy::SimdFloatReduceCmp            0      0.00%     87.37% # attempts to use FU when none available (Count)
system.cpu.statFuBusy::SimdAes                      0      0.00%     87.37% # attempts to use FU when none available (Count)
system.cpu.statFuBusy::SimdAesMix                   0      0.00%     87.37% # attempts to use FU when none available (Count)
system.cpu.statFuBusy::SimdSha1Hash                 0      0.00%     87.37% # attempts to use FU when none available (Count)
system.cpu.statFuBusy::SimdSha1Hash2                0      0.00%     87.37% # attempts to use FU when none available (Count)
system.cpu.statFuBusy::SimdSha256Hash               0      0.00%     87.37% # attempts to use FU when none available (Count)
system.cpu.statFuBusy::SimdSha256Hash2              0      0.00%     87.37% # attempts to use FU when none available (Count)
system.cpu.statFuBusy::SimdShaSigma2                0      0.00%     87.37% # attempts to use FU when none available (Count)
system.cpu.statFuBusy::SimdShaSigma3                0      0.00%     87.37% # attempts to use FU when none available (Count)
system.cpu.statFuBusy::SimdPredAlu                  0      0.00%     87.37% # attempts to use FU when none available (Count)
system.cpu.statFuBusy::Matrix                       0      0.00%     87.37% # attempts to use FU when none available (Count)
system.cpu.statFuBusy::MatrixMov                    0      0.00%     87.37% # attempts to use FU when none available (Count)
system.cpu.statFuBusy::MatrixOP                     0      0.00%     87.37% # attempts to use FU when none available (Count)
system.cpu.statFuBusy::MemRead                4426074      8.12%     95.50% # attempts to use FU when none available (Count)
system.cpu.statFuBusy::MemWrite               1373517      2.52%     98.02% # attempts to use FU when none available (Count)
system.cpu.statFuBusy::FloatMemRead            418426      0.77%     98.78% # attempts to use FU when none available (Count)
system.cpu.statFuBusy::FloatMemWrite           662059      1.22%    100.00% # attempts to use FU when none available (Count)
system.cpu.statFuBusy::IprAccess                    0      0.00%    100.00% # attempts to use FU when none available (Count)
system.cpu.statFuBusy::InstPrefetch                 0      0.00%    100.00% # attempts to use FU when none available (Count)
system.cpu.statFuBusy::SimdUnitStrideLoad            0      0.00%    100.00% # attempts to use FU when none available (Count)
system.cpu.statFuBusy::SimdUnitStrideStore            0      0.00%    100.00% # attempts to use FU when none available (Count)
system.cpu.statFuBusy::SimdUnitStrideMaskLoad            0      0.00%    100.00% # attempts to use FU when none available (Count)
system.cpu.statFuBusy::SimdUnitStrideMaskStore            0      0.00%    100.00% # attempts to use FU when none available (Count)
system.cpu.statFuBusy::SimdStridedLoad              0      0.00%    100.00% # attempts to use FU when none available (Count)
system.cpu.statFuBusy::SimdStridedStore             0      0.00%    100.00% # attempts to use FU when none available (Count)
system.cpu.statFuBusy::SimdIndexedLoad              0      0.00%    100.00% # attempts to use FU when none available (Count)
system.cpu.statFuBusy::SimdIndexedStore             0      0.00%    100.00% # attempts to use FU when none available (Count)
system.cpu.statFuBusy::SimdWholeRegisterLoad            0      0.00%    100.00% # attempts to use FU when none available (Count)
system.cpu.statFuBusy::SimdWholeRegisterStore            0      0.00%    100.00% # attempts to use FU when none available (Count)
system.cpu.statFuBusy::SimdUnitStrideFaultOnlyFirstLoad            0      0.00%    100.00% # attempts to use FU when none available (Count)
system.cpu.statFuBusy::SimdUnitStrideSegmentedLoad            0      0.00%    100.00% # attempts to use FU when none available (Count)
system.cpu.statFuBusy::SimdUnitStrideSegmentedStore            0      0.00%    100.00% # attempts to use FU when none available (Count)
system.cpu.statFuBusy::SimdExt                      0      0.00%    100.00% # attempts to use FU when none available (Count)
system.cpu.statFuBusy::SimdFloatExt                 0      0.00%    100.00% # attempts to use FU when none available (Count)
system.cpu.statFuBusy::SimdConfig                   0      0.00%    100.00% # attempts to use FU when none available (Count)
system.cpu.statIssuedInstType_0::No_OpClass     43870692      1.87%      1.87% # Number of instructions issued per FU type, per thread (Count)
system.cpu.statIssuedInstType_0::IntAlu    1746035516     74.27%     76.14% # Number of instructions issued per FU type, per thread (Count)
system.cpu.statIssuedInstType_0::IntMult          492      0.00%     76.14% # Number of instructions issued per FU type, per thread (Count)
system.cpu.statIssuedInstType_0::IntDiv      36622628      1.56%     77.69% # Number of instructions issued per FU type, per thread (Count)
system.cpu.statIssuedInstType_0::FloatAdd      3164878      0.13%     77.83% # Number of instructions issued per FU type, per thread (Count)
system.cpu.statIssuedInstType_0::FloatCmp            0      0.00%     77.83% # Number of instructions issued per FU type, per thread (Count)
system.cpu.statIssuedInstType_0::FloatCvt         1282      0.00%     77.83% # Number of instructions issued per FU type, per thread (Count)
system.cpu.statIssuedInstType_0::FloatMult            0      0.00%     77.83% # Number of instructions issued per FU type, per thread (Count)
system.cpu.statIssuedInstType_0::FloatMultAcc            0      0.00%     77.83% # Number of instructions issued per FU type, per thread (Count)
system.cpu.statIssuedInstType_0::FloatDiv            0      0.00%     77.83% # Number of instructions issued per FU type, per thread (Count)
system.cpu.statIssuedInstType_0::FloatMisc            0      0.00%     77.83% # Number of instructions issued per FU type, per thread (Count)
system.cpu.statIssuedInstType_0::FloatSqrt            0      0.00%     77.83% # Number of instructions issued per FU type, per thread (Count)
system.cpu.statIssuedInstType_0::SimdAdd      2293720      0.10%     77.93% # Number of instructions issued per FU type, per thread (Count)
system.cpu.statIssuedInstType_0::SimdAddAcc            0      0.00%     77.93% # Number of instructions issued per FU type, per thread (Count)
system.cpu.statIssuedInstType_0::SimdAlu     15079478      0.64%     78.57% # Number of instructions issued per FU type, per thread (Count)
system.cpu.statIssuedInstType_0::SimdCmp         6930      0.00%     78.57% # Number of instructions issued per FU type, per thread (Count)
system.cpu.statIssuedInstType_0::SimdCvt      7730796      0.33%     78.90% # Number of instructions issued per FU type, per thread (Count)
system.cpu.statIssuedInstType_0::SimdMisc      6775165      0.29%     79.18% # Number of instructions issued per FU type, per thread (Count)
system.cpu.statIssuedInstType_0::SimdMult            0      0.00%     79.18% # Number of instructions issued per FU type, per thread (Count)
system.cpu.statIssuedInstType_0::SimdMultAcc            0      0.00%     79.18% # Number of instructions issued per FU type, per thread (Count)
system.cpu.statIssuedInstType_0::SimdMatMultAcc            0      0.00%     79.18% # Number of instructions issued per FU type, per thread (Count)
system.cpu.statIssuedInstType_0::SimdShift      2292998      0.10%     79.28% # Number of instructions issued per FU type, per thread (Count)
system.cpu.statIssuedInstType_0::SimdShiftAcc            0      0.00%     79.28% # Number of instructions issued per FU type, per thread (Count)
system.cpu.statIssuedInstType_0::SimdDiv            0      0.00%     79.28% # Number of instructions issued per FU type, per thread (Count)
system.cpu.statIssuedInstType_0::SimdSqrt            0      0.00%     79.28% # Number of instructions issued per FU type, per thread (Count)
system.cpu.statIssuedInstType_0::SimdFloatAdd          158      0.00%     79.28% # Number of instructions issued per FU type, per thread (Count)
system.cpu.statIssuedInstType_0::SimdFloatAlu            0      0.00%     79.28% # Number of instructions issued per FU type, per thread (Count)
system.cpu.statIssuedInstType_0::SimdFloatCmp            0      0.00%     79.28% # Number of instructions issued per FU type, per thread (Count)
system.cpu.statIssuedInstType_0::SimdFloatCvt         1825      0.00%     79.28% # Number of instructions issued per FU type, per thread (Count)
system.cpu.statIssuedInstType_0::SimdFloatDiv          204      0.00%     79.28% # Number of instructions issued per FU type, per thread (Count)
system.cpu.statIssuedInstType_0::SimdFloatMisc            0      0.00%     79.28% # Number of instructions issued per FU type, per thread (Count)
system.cpu.statIssuedInstType_0::SimdFloatMult           75      0.00%     79.28% # Number of instructions issued per FU type, per thread (Count)
system.cpu.statIssuedInstType_0::SimdFloatMultAcc            0      0.00%     79.28% # Number of instructions issued per FU type, per thread (Count)
system.cpu.statIssuedInstType_0::SimdFloatMatMultAcc            0      0.00%     79.28% # Number of instructions issued per FU type, per thread (Count)
system.cpu.statIssuedInstType_0::SimdFloatSqrt            0      0.00%     79.28% # Number of instructions issued per FU type, per thread (Count)
system.cpu.statIssuedInstType_0::SimdReduceAdd            0      0.00%     79.28% # Number of instructions issued per FU type, per thread (Count)
system.cpu.statIssuedInstType_0::SimdReduceAlu            0      0.00%     79.28% # Number of instructions issued per FU type, per thread (Count)
system.cpu.statIssuedInstType_0::SimdReduceCmp            0      0.00%     79.28% # Number of instructions issued per FU type, per thread (Count)
system.cpu.statIssuedInstType_0::SimdFloatReduceAdd            0      0.00%     79.28% # Number of instructions issued per FU type, per thread (Count)
system.cpu.statIssuedInstType_0::SimdFloatReduceCmp            0      0.00%     79.28% # Number of instructions issued per FU type, per thread (Count)
system.cpu.statIssuedInstType_0::SimdAes            0      0.00%     79.28% # Number of instructions issued per FU type, per thread (Count)
system.cpu.statIssuedInstType_0::SimdAesMix            0      0.00%     79.28% # Number of instructions issued per FU type, per thread (Count)
system.cpu.statIssuedInstType_0::SimdSha1Hash            0      0.00%     79.28% # Number of instructions issued per FU type, per thread (Count)
system.cpu.statIssuedInstType_0::SimdSha1Hash2            0      0.00%     79.28% # Number of instructions issued per FU type, per thread (Count)
system.cpu.statIssuedInstType_0::SimdSha256Hash            0      0.00%     79.28% # Number of instructions issued per FU type, per thread (Count)
system.cpu.statIssuedInstType_0::SimdSha256Hash2            0      0.00%     79.28% # Number of instructions issued per FU type, per thread (Count)
system.cpu.statIssuedInstType_0::SimdShaSigma2            0      0.00%     79.28% # Number of instructions issued per FU type, per thread (Count)
system.cpu.statIssuedInstType_0::SimdShaSigma3            0      0.00%     79.28% # Number of instructions issued per FU type, per thread (Count)
system.cpu.statIssuedInstType_0::SimdPredAlu            0      0.00%     79.28% # Number of instructions issued per FU type, per thread (Count)
system.cpu.statIssuedInstType_0::Matrix             0      0.00%     79.28% # Number of instructions issued per FU type, per thread (Count)
system.cpu.statIssuedInstType_0::MatrixMov            0      0.00%     79.28% # Number of instructions issued per FU type, per thread (Count)
system.cpu.statIssuedInstType_0::MatrixOP            0      0.00%     79.28% # Number of instructions issued per FU type, per thread (Count)
system.cpu.statIssuedInstType_0::MemRead    230445095      9.80%     89.08% # Number of instructions issued per FU type, per thread (Count)
system.cpu.statIssuedInstType_0::MemWrite    220827105      9.39%     98.48% # Number of instructions issued per FU type, per thread (Count)
system.cpu.statIssuedInstType_0::FloatMemRead     17778079      0.76%     99.23% # Number of instructions issued per FU type, per thread (Count)
system.cpu.statIssuedInstType_0::FloatMemWrite     18024889      0.77%    100.00% # Number of instructions issued per FU type, per thread (Count)
system.cpu.statIssuedInstType_0::IprAccess            0      0.00%    100.00% # Number of instructions issued per FU type, per thread (Count)
system.cpu.statIssuedInstType_0::InstPrefetch            0      0.00%    100.00% # Number of instructions issued per FU type, per thread (Count)
system.cpu.statIssuedInstType_0::SimdUnitStrideLoad            0      0.00%    100.00% # Number of instructions issued per FU type, per thread (Count)
system.cpu.statIssuedInstType_0::SimdUnitStrideStore            0      0.00%    100.00% # Number of instructions issued per FU type, per thread (Count)
system.cpu.statIssuedInstType_0::SimdUnitStrideMaskLoad            0      0.00%    100.00% # Number of instructions issued per FU type, per thread (Count)
system.cpu.statIssuedInstType_0::SimdUnitStrideMaskStore            0      0.00%    100.00% # Number of instructions issued per FU type, per thread (Count)
system.cpu.statIssuedInstType_0::SimdStridedLoad            0      0.00%    100.00% # Number of instructions issued per FU type, per thread (Count)
system.cpu.statIssuedInstType_0::SimdStridedStore            0      0.00%    100.00% # Number of instructions issued per FU type, per thread (Count)
system.cpu.statIssuedInstType_0::SimdIndexedLoad            0      0.00%    100.00% # Number of instructions issued per FU type, per thread (Count)
system.cpu.statIssuedInstType_0::SimdIndexedStore            0      0.00%    100.00% # Number of instructions issued per FU type, per thread (Count)
system.cpu.statIssuedInstType_0::SimdWholeRegisterLoad            0      0.00%    100.00% # Number of instructions issued per FU type, per thread (Count)
system.cpu.statIssuedInstType_0::SimdWholeRegisterStore            0      0.00%    100.00% # Number of instructions issued per FU type, per thread (Count)
system.cpu.statIssuedInstType_0::SimdUnitStrideFaultOnlyFirstLoad            0      0.00%    100.00% # Number of instructions issued per FU type, per thread (Count)
system.cpu.statIssuedInstType_0::SimdUnitStrideSegmentedLoad            0      0.00%    100.00% # Number of instructions issued per FU type, per thread (Count)
system.cpu.statIssuedInstType_0::SimdUnitStrideSegmentedStore            0      0.00%    100.00% # Number of instructions issued per FU type, per thread (Count)
system.cpu.statIssuedInstType_0::SimdExt            0      0.00%    100.00% # Number of instructions issued per FU type, per thread (Count)
system.cpu.statIssuedInstType_0::SimdFloatExt            0      0.00%    100.00% # Number of instructions issued per FU type, per thread (Count)
system.cpu.statIssuedInstType_0::SimdConfig            0      0.00%    100.00% # Number of instructions issued per FU type, per thread (Count)
system.cpu.statIssuedInstType_0::total     2350952005                       # Number of instructions issued per FU type, per thread (Count)
system.cpu.issueRate                         2.314163                       # Inst issue rate ((Count/Cycle))
system.cpu.fuBusy                            54484576                       # FU busy when requested (Count)
system.cpu.fuBusyRate                        0.023176                       # FU busy rate (busy events/executed inst) ((Count/Count))
system.cpu.intInstQueueReads               5614066947                       # Number of integer instruction queue reads (Count)
system.cpu.intInstQueueWrites              3303331540                       # Number of integer instruction queue writes (Count)
system.cpu.intInstQueueWakeupAccesses      2250741842                       # Number of integer instruction queue wakeup accesses (Count)
system.cpu.fpInstQueueReads                 155875352                       # Number of floating instruction queue reads (Count)
system.cpu.fpInstQueueWrites                129911292                       # Number of floating instruction queue writes (Count)
system.cpu.fpInstQueueWakeupAccesses         74429413                       # Number of floating instruction queue wakeup accesses (Count)
system.cpu.vecInstQueueReads                        0                       # Number of vector instruction queue reads (Count)
system.cpu.vecInstQueueWrites                       0                       # Number of vector instruction queue writes (Count)
system.cpu.vecInstQueueWakeupAccesses               0                       # Number of vector instruction queue wakeup accesses (Count)
system.cpu.intAluAccesses                  2283042056                       # Number of integer alu accesses (Count)
system.cpu.fpAluAccesses                     78523833                       # Number of floating point alu accesses (Count)
system.cpu.vecAluAccesses                           0                       # Number of vector alu accesses (Count)
system.cpu.numSquashedInsts                  17842767                       # Number of squashed instructions skipped in execute (Count)
system.cpu.numSwp                                   0                       # Number of swp insts executed (Count)
system.cpu.timesIdled                          173153                       # Number of times that the entire CPU went into an idle state and unscheduled itself (Count)
system.cpu.idleCycles                         5297786                       # Total number of cycles that the CPU has spent unscheduled due to idling (Cycle)
system.cpu.MemDepUnit__0.insertedLoads      282802889                       # Number of loads inserted to the mem dependence unit. (Count)
system.cpu.MemDepUnit__0.insertedStores     284004019                       # Number of stores inserted to the mem dependence unit. (Count)
system.cpu.MemDepUnit__0.conflictingLoads     15437831                       # Number of conflicting loads. (Count)
system.cpu.MemDepUnit__0.conflictingStores      9491875                       # Number of conflicting stores. (Count)
system.cpu.MemDepUnit__1.insertedLoads              0                       # Number of loads inserted to the mem dependence unit. (Count)
system.cpu.MemDepUnit__1.insertedStores             0                       # Number of stores inserted to the mem dependence unit. (Count)
system.cpu.MemDepUnit__1.conflictingLoads            0                       # Number of conflicting loads. (Count)
system.cpu.MemDepUnit__1.conflictingStores            0                       # Number of conflicting stores. (Count)
system.cpu.MemDepUnit__2.insertedLoads              0                       # Number of loads inserted to the mem dependence unit. (Count)
system.cpu.MemDepUnit__2.insertedStores             0                       # Number of stores inserted to the mem dependence unit. (Count)
system.cpu.MemDepUnit__2.conflictingLoads            0                       # Number of conflicting loads. (Count)
system.cpu.MemDepUnit__2.conflictingStores            0                       # Number of conflicting stores. (Count)
system.cpu.MemDepUnit__3.insertedLoads              0                       # Number of loads inserted to the mem dependence unit. (Count)
system.cpu.MemDepUnit__3.insertedStores             0                       # Number of stores inserted to the mem dependence unit. (Count)
system.cpu.MemDepUnit__3.conflictingLoads            0                       # Number of conflicting loads. (Count)
system.cpu.MemDepUnit__3.conflictingStores            0                       # Number of conflicting stores. (Count)
system.cpu.branchPred.lookups_0::NoBranch       911538      0.22%      0.22% # Number of BP lookups (Count)
system.cpu.branchPred.lookups_0::Return      16921600      4.12%      4.34% # Number of BP lookups (Count)
system.cpu.branchPred.lookups_0::CallDirect     18424442      4.48%      8.82% # Number of BP lookups (Count)
system.cpu.branchPred.lookups_0::CallIndirect         1422      0.00%      8.82% # Number of BP lookups (Count)
system.cpu.branchPred.lookups_0::DirectCond    344587492     83.80%     92.62% # Number of BP lookups (Count)
system.cpu.branchPred.lookups_0::DirectUncond     13360860      3.25%     95.87% # Number of BP lookups (Count)
system.cpu.branchPred.lookups_0::IndirectCond            0      0.00%     95.87% # Number of BP lookups (Count)
system.cpu.branchPred.lookups_0::IndirectUncond     16998507      4.13%    100.00% # Number of BP lookups (Count)
system.cpu.branchPred.lookups_0::total      411205861                       # Number of BP lookups (Count)
system.cpu.branchPred.squashes_0::NoBranch       834001      0.52%      0.52% # Number of branches that got squashed (completely removed) as an earlier branch was mispredicted. (Count)
system.cpu.branchPred.squashes_0::Return      5244425      3.29%      3.81% # Number of branches that got squashed (completely removed) as an earlier branch was mispredicted. (Count)
system.cpu.branchPred.squashes_0::CallDirect      6747865      4.23%      8.05% # Number of branches that got squashed (completely removed) as an earlier branch was mispredicted. (Count)
system.cpu.branchPred.squashes_0::CallIndirect          819      0.00%      8.05% # Number of branches that got squashed (completely removed) as an earlier branch was mispredicted. (Count)
system.cpu.branchPred.squashes_0::DirectCond    132734422     83.29%     91.34% # Number of branches that got squashed (completely removed) as an earlier branch was mispredicted. (Count)
system.cpu.branchPred.squashes_0::DirectUncond      5925649      3.72%     95.06% # Number of branches that got squashed (completely removed) as an earlier branch was mispredicted. (Count)
system.cpu.branchPred.squashes_0::IndirectCond            0      0.00%     95.06% # Number of branches that got squashed (completely removed) as an earlier branch was mispredicted. (Count)
system.cpu.branchPred.squashes_0::IndirectUncond      7875844      4.94%    100.00% # Number of branches that got squashed (completely removed) as an earlier branch was mispredicted. (Count)
system.cpu.branchPred.squashes_0::total     159363025                       # Number of branches that got squashed (completely removed) as an earlier branch was mispredicted. (Count)
system.cpu.branchPred.corrected_0::NoBranch       252823      1.94%      1.94% # Number of branches that got corrected but not yet commited. Branches get corrected by decode or after execute. Also a branch misprediction can be detected out-of-order. Therefore, a corrected branch might not end up beeing committed in case an even earlier branch was mispredicted (Count)
system.cpu.branchPred.corrected_0::Return           14      0.00%      1.94% # Number of branches that got corrected but not yet commited. Branches get corrected by decode or after execute. Also a branch misprediction can be detected out-of-order. Therefore, a corrected branch might not end up beeing committed in case an even earlier branch was mispredicted (Count)
system.cpu.branchPred.corrected_0::CallDirect       214907      1.65%      3.58% # Number of branches that got corrected but not yet commited. Branches get corrected by decode or after execute. Also a branch misprediction can be detected out-of-order. Therefore, a corrected branch might not end up beeing committed in case an even earlier branch was mispredicted (Count)
system.cpu.branchPred.corrected_0::CallIndirect          245      0.00%      3.58% # Number of branches that got corrected but not yet commited. Branches get corrected by decode or after execute. Also a branch misprediction can be detected out-of-order. Therefore, a corrected branch might not end up beeing committed in case an even earlier branch was mispredicted (Count)
system.cpu.branchPred.corrected_0::DirectCond     11270186     86.31%     89.89% # Number of branches that got corrected but not yet commited. Branches get corrected by decode or after execute. Also a branch misprediction can be detected out-of-order. Therefore, a corrected branch might not end up beeing committed in case an even earlier branch was mispredicted (Count)
system.cpu.branchPred.corrected_0::DirectUncond       683033      5.23%     95.12% # Number of branches that got corrected but not yet commited. Branches get corrected by decode or after execute. Also a branch misprediction can be detected out-of-order. Therefore, a corrected branch might not end up beeing committed in case an even earlier branch was mispredicted (Count)
system.cpu.branchPred.corrected_0::IndirectCond            0      0.00%     95.12% # Number of branches that got corrected but not yet commited. Branches get corrected by decode or after execute. Also a branch misprediction can be detected out-of-order. Therefore, a corrected branch might not end up beeing committed in case an even earlier branch was mispredicted (Count)
system.cpu.branchPred.corrected_0::IndirectUncond       637279      4.88%    100.00% # Number of branches that got corrected but not yet commited. Branches get corrected by decode or after execute. Also a branch misprediction can be detected out-of-order. Therefore, a corrected branch might not end up beeing committed in case an even earlier branch was mispredicted (Count)
system.cpu.branchPred.corrected_0::total     13058487                       # Number of branches that got corrected but not yet commited. Branches get corrected by decode or after execute. Also a branch misprediction can be detected out-of-order. Therefore, a corrected branch might not end up beeing committed in case an even earlier branch was mispredicted (Count)
system.cpu.branchPred.earlyResteers_0::NoBranch            0                       # Number of branches that got redirected after decode. (Count)
system.cpu.branchPred.earlyResteers_0::Return            0                       # Number of branches that got redirected after decode. (Count)
system.cpu.branchPred.earlyResteers_0::CallDirect            0                       # Number of branches that got redirected after decode. (Count)
system.cpu.branchPred.earlyResteers_0::CallIndirect            0                       # Number of branches that got redirected after decode. (Count)
system.cpu.branchPred.earlyResteers_0::DirectCond            0                       # Number of branches that got redirected after decode. (Count)
system.cpu.branchPred.earlyResteers_0::DirectUncond            0                       # Number of branches that got redirected after decode. (Count)
system.cpu.branchPred.earlyResteers_0::IndirectCond            0                       # Number of branches that got redirected after decode. (Count)
system.cpu.branchPred.earlyResteers_0::IndirectUncond            0                       # Number of branches that got redirected after decode. (Count)
system.cpu.branchPred.earlyResteers_0::total            0                       # Number of branches that got redirected after decode. (Count)
system.cpu.branchPred.committed_0::NoBranch        77537      0.03%      0.03% # Number of branches finally committed  (Count)
system.cpu.branchPred.committed_0::Return     11677174      4.64%      4.67% # Number of branches finally committed  (Count)
system.cpu.branchPred.committed_0::CallDirect     11676576      4.64%      9.30% # Number of branches finally committed  (Count)
system.cpu.branchPred.committed_0::CallIndirect          603      0.00%      9.30% # Number of branches finally committed  (Count)
system.cpu.branchPred.committed_0::DirectCond    211853070     84.12%     93.43% # Number of branches finally committed  (Count)
system.cpu.branchPred.committed_0::DirectUncond      7435211      2.95%     96.38% # Number of branches finally committed  (Count)
system.cpu.branchPred.committed_0::IndirectCond            0      0.00%     96.38% # Number of branches finally committed  (Count)
system.cpu.branchPred.committed_0::IndirectUncond      9122663      3.62%    100.00% # Number of branches finally committed  (Count)
system.cpu.branchPred.committed_0::total    251842834                       # Number of branches finally committed  (Count)
system.cpu.branchPred.mispredicted_0::NoBranch        77537      0.66%      0.66% # Number of committed branches that were mispredicted. (Count)
system.cpu.branchPred.mispredicted_0::Return            0      0.00%      0.66% # Number of committed branches that were mispredicted. (Count)
system.cpu.branchPred.mispredicted_0::CallDirect       175143      1.50%      2.17% # Number of committed branches that were mispredicted. (Count)
system.cpu.branchPred.mispredicted_0::CallIndirect          207      0.00%      2.17% # Number of committed branches that were mispredicted. (Count)
system.cpu.branchPred.mispredicted_0::DirectCond     10706302     91.82%     93.99% # Number of committed branches that were mispredicted. (Count)
system.cpu.branchPred.mispredicted_0::DirectUncond       184826      1.59%     95.57% # Number of committed branches that were mispredicted. (Count)
system.cpu.branchPred.mispredicted_0::IndirectCond            0      0.00%     95.57% # Number of committed branches that were mispredicted. (Count)
system.cpu.branchPred.mispredicted_0::IndirectUncond       516083      4.43%    100.00% # Number of committed branches that were mispredicted. (Count)
system.cpu.branchPred.mispredicted_0::total     11660098                       # Number of committed branches that were mispredicted. (Count)
system.cpu.branchPred.targetProvider_0::NoTarget    126039235     30.65%     30.65% # The component providing the target for taken branches (Count)
system.cpu.branchPred.targetProvider_0::BTB    254698830     61.94%     92.59% # The component providing the target for taken branches (Count)
system.cpu.branchPred.targetProvider_0::RAS     16921599      4.12%     96.71% # The component providing the target for taken branches (Count)
system.cpu.branchPred.targetProvider_0::Indirect     13546197      3.29%    100.00% # The component providing the target for taken branches (Count)
system.cpu.branchPred.targetProvider_0::total    411205861                       # The component providing the target for taken branches (Count)
system.cpu.branchPred.targetWrong_0::NoBranch      4529460     51.03%     51.03% # Number of branches where the target was incorrect or not available at prediction time. (Count)
system.cpu.branchPred.targetWrong_0::Return      4095853     46.15%     97.18% # Number of branches where the target was incorrect or not available at prediction time. (Count)
system.cpu.branchPred.targetWrong_0::CallDirect           14      0.00%     97.18% # Number of branches where the target was incorrect or not available at prediction time. (Count)
system.cpu.branchPred.targetWrong_0::CallIndirect       250317      2.82%    100.00% # Number of branches where the target was incorrect or not available at prediction time. (Count)
system.cpu.branchPred.targetWrong_0::DirectCond            0      0.00%    100.00% # Number of branches where the target was incorrect or not available at prediction time. (Count)
system.cpu.branchPred.targetWrong_0::DirectUncond            0      0.00%    100.00% # Number of branches where the target was incorrect or not available at prediction time. (Count)
system.cpu.branchPred.targetWrong_0::IndirectCond            0      0.00%    100.00% # Number of branches where the target was incorrect or not available at prediction time. (Count)
system.cpu.branchPred.targetWrong_0::IndirectUncond            0      0.00%    100.00% # Number of branches where the target was incorrect or not available at prediction time. (Count)
system.cpu.branchPred.targetWrong_0::total      8875644                       # Number of branches where the target was incorrect or not available at prediction time. (Count)
system.cpu.branchPred.condPredicted         345499030                       # Number of conditional branches predicted (Count)
system.cpu.branchPred.condPredictedTaken    228972198                       # Number of conditional branches predicted as taken (Count)
system.cpu.branchPred.condIncorrect          13058487                       # Number of conditional branches incorrect (Count)
system.cpu.branchPred.predTakenBTBMiss        1330238                       # Number of branches predicted taken but missed in BTB (Count)
system.cpu.branchPred.NotTakenMispredicted      6882221                       # Number branches predicted 'not taken' but turned out to be taken (Count)
system.cpu.branchPred.TakenMispredicted       6176266                       # Number branches predicted taken but are actually not taken (Count)
system.cpu.branchPred.BTBLookups            411205861                       # Number of BTB lookups (Count)
system.cpu.branchPred.BTBUpdates              5991860                       # Number of BTB updates (Count)
system.cpu.branchPred.BTBHits               321514894                       # Number of BTB hits (Count)
system.cpu.branchPred.BTBHitRatio            0.781883                       # BTB Hit Ratio (Ratio)
system.cpu.branchPred.BTBMispredicted         1512048                       # Number BTB mispredictions. No target found or target wrong (Count)
system.cpu.branchPred.indirectLookups        16999929                       # Number of indirect predictor lookups. (Count)
system.cpu.branchPred.indirectHits           13546197                       # Number of indirect target hits. (Count)
system.cpu.branchPred.indirectMisses          3453732                       # Number of indirect misses. (Count)
system.cpu.branchPred.indirectMispredicted            0                       # Number of mispredicted indirect branches. (Count)
system.cpu.branchPred.btb.lookups::NoBranch       911538      0.22%      0.22% # Number of BTB lookups (Count)
system.cpu.branchPred.btb.lookups::Return     16921600      4.12%      4.34% # Number of BTB lookups (Count)
system.cpu.branchPred.btb.lookups::CallDirect     18424442      4.48%      8.82% # Number of BTB lookups (Count)
system.cpu.branchPred.btb.lookups::CallIndirect         1422      0.00%      8.82% # Number of BTB lookups (Count)
system.cpu.branchPred.btb.lookups::DirectCond    344587492     83.80%     92.62% # Number of BTB lookups (Count)
system.cpu.branchPred.btb.lookups::DirectUncond     13360860      3.25%     95.87% # Number of BTB lookups (Count)
system.cpu.branchPred.btb.lookups::IndirectCond            0      0.00%     95.87% # Number of BTB lookups (Count)
system.cpu.branchPred.btb.lookups::IndirectUncond     16998507      4.13%    100.00% # Number of BTB lookups (Count)
system.cpu.branchPred.btb.lookups::total    411205861                       # Number of BTB lookups (Count)
system.cpu.branchPred.btb.misses::NoBranch       187578      0.21%      0.21% # Number of BTB misses (Count)
system.cpu.branchPred.btb.misses::Return     16105911     17.96%     18.17% # Number of BTB misses (Count)
system.cpu.branchPred.btb.misses::CallDirect       234329      0.26%     18.43% # Number of BTB misses (Count)
system.cpu.branchPred.btb.misses::CallIndirect         1422      0.00%     18.43% # Number of BTB misses (Count)
system.cpu.branchPred.btb.misses::DirectCond     53663128     59.83%     78.26% # Number of BTB misses (Count)
system.cpu.branchPred.btb.misses::DirectUncond      2500092      2.79%     81.05% # Number of BTB misses (Count)
system.cpu.branchPred.btb.misses::IndirectCond            0      0.00%     81.05% # Number of BTB misses (Count)
system.cpu.branchPred.btb.misses::IndirectUncond     16998507     18.95%    100.00% # Number of BTB misses (Count)
system.cpu.branchPred.btb.misses::total      89690967                       # Number of BTB misses (Count)
system.cpu.branchPred.btb.updates::NoBranch            0      0.00%      0.00% # Number of BTB updates (Count)
system.cpu.branchPred.btb.updates::Return            0      0.00%      0.00% # Number of BTB updates (Count)
system.cpu.branchPred.btb.updates::CallDirect       214907      3.59%      3.59% # Number of BTB updates (Count)
system.cpu.branchPred.btb.updates::CallIndirect            0      0.00%      3.59% # Number of BTB updates (Count)
system.cpu.branchPred.btb.updates::DirectCond      5093920     85.01%     88.60% # Number of BTB updates (Count)
system.cpu.branchPred.btb.updates::DirectUncond       683033     11.40%    100.00% # Number of BTB updates (Count)
system.cpu.branchPred.btb.updates::IndirectCond            0      0.00%    100.00% # Number of BTB updates (Count)
system.cpu.branchPred.btb.updates::IndirectUncond            0      0.00%    100.00% # Number of BTB updates (Count)
system.cpu.branchPred.btb.updates::total      5991860                       # Number of BTB updates (Count)
system.cpu.branchPred.btb.mispredict::NoBranch            0      0.00%      0.00% # Number of BTB mispredictions. No target found or target wrong. (Count)
system.cpu.branchPred.btb.mispredict::Return            0      0.00%      0.00% # Number of BTB mispredictions. No target found or target wrong. (Count)
system.cpu.branchPred.btb.mispredict::CallDirect       214907      3.59%      3.59% # Number of BTB mispredictions. No target found or target wrong. (Count)
system.cpu.branchPred.btb.mispredict::CallIndirect            0      0.00%      3.59% # Number of BTB mispredictions. No target found or target wrong. (Count)
system.cpu.branchPred.btb.mispredict::DirectCond      5093920     85.01%     88.60% # Number of BTB mispredictions. No target found or target wrong. (Count)
system.cpu.branchPred.btb.mispredict::DirectUncond       683033     11.40%    100.00% # Number of BTB mispredictions. No target found or target wrong. (Count)
system.cpu.branchPred.btb.mispredict::IndirectCond            0      0.00%    100.00% # Number of BTB mispredictions. No target found or target wrong. (Count)
system.cpu.branchPred.btb.mispredict::IndirectUncond            0      0.00%    100.00% # Number of BTB mispredictions. No target found or target wrong. (Count)
system.cpu.branchPred.btb.mispredict::total      5991860                       # Number of BTB mispredictions. No target found or target wrong. (Count)
system.cpu.branchPred.btb.power_state.pwrStateResidencyTicks::UNDEFINED 1015897200000                       # Cumulative time (in ticks) in various power states (Tick)
system.cpu.branchPred.indirectBranchPred.lookups     16999929                       # Number of lookups (Count)
system.cpu.branchPred.indirectBranchPred.hits     13546197                       # Number of hits of a tag (Count)
system.cpu.branchPred.indirectBranchPred.misses      3453732                       # Number of misses (Count)
system.cpu.branchPred.indirectBranchPred.targetRecords       637524                       # Number of targets that where recorded/installed in the cache (Count)
system.cpu.branchPred.indirectBranchPred.indirectRecords     17637453                       # Number of indirect branches/calls recorded in the indirect hist (Count)
system.cpu.branchPred.indirectBranchPred.speculativeOverflows            1                       # Number of times more than the allowed capacity for speculative branches/calls where in flight and destroy the path history (Count)
system.cpu.branchPred.ras.pushes             23670289                       # Number of times a PC was pushed onto the RAS (Count)
system.cpu.branchPred.ras.pops               23670284                       # Number of times a PC was poped from the RAS (Count)
system.cpu.branchPred.ras.squashes           11993109                       # Number of times the stack operation was squashed due to wrong speculation. (Count)
system.cpu.branchPred.ras.used               11677174                       # Number of times the RAS is the provider (Count)
system.cpu.branchPred.ras.correct            11677174                       # Number of times the RAS is the provider and the prediction is correct (Count)
system.cpu.branchPred.ras.incorrect                 0                       # Number of times the RAS is the provider and the prediction is wrong (Count)
system.cpu.commit.commitSquashedInsts       731086905                       # The number of squashed insts skipped by commit (Count)
system.cpu.commit.commitNonSpecStalls            8158                       # The number of times commit has been forced to stall to communicate backwards (Count)
system.cpu.commit.branchMispredicts          11609308                       # The number of times a branch was mispredicted (Count)
system.cpu.commit.numCommittedDist::samples    912388223                       # Number of insts commited each cycle (Count)
system.cpu.commit.numCommittedDist::mean     2.160536                       # Number of insts commited each cycle (Count)
system.cpu.commit.numCommittedDist::stdev     2.914352                       # Number of insts commited each cycle (Count)
system.cpu.commit.numCommittedDist::underflows            0      0.00%      0.00% # Number of insts commited each cycle (Count)
system.cpu.commit.numCommittedDist::0       468998047     51.40%     51.40% # Number of insts commited each cycle (Count)
system.cpu.commit.numCommittedDist::1        84528731      9.26%     60.67% # Number of insts commited each cycle (Count)
system.cpu.commit.numCommittedDist::2        46315049      5.08%     65.74% # Number of insts commited each cycle (Count)
system.cpu.commit.numCommittedDist::3        60554207      6.64%     72.38% # Number of insts commited each cycle (Count)
system.cpu.commit.numCommittedDist::4        86379805      9.47%     81.85% # Number of insts commited each cycle (Count)
system.cpu.commit.numCommittedDist::5        12121693      1.33%     83.18% # Number of insts commited each cycle (Count)
system.cpu.commit.numCommittedDist::6         4688426      0.51%     83.69% # Number of insts commited each cycle (Count)
system.cpu.commit.numCommittedDist::7        12249895      1.34%     85.03% # Number of insts commited each cycle (Count)
system.cpu.commit.numCommittedDist::8       136552370     14.97%    100.00% # Number of insts commited each cycle (Count)
system.cpu.commit.numCommittedDist::overflows            0      0.00%    100.00% # Number of insts commited each cycle (Count)
system.cpu.commit.numCommittedDist::min_value            0                       # Number of insts commited each cycle (Count)
system.cpu.commit.numCommittedDist::max_value            8                       # Number of insts commited each cycle (Count)
system.cpu.commit.numCommittedDist::total    912388223                       # Number of insts commited each cycle (Count)
system.cpu.commit.amos                              0                       # Number of atomic instructions committed (Count)
system.cpu.commit.membars                        4870                       # Number of memory barriers committed (Count)
system.cpu.commit.functionCalls              11677179                       # Number of function calls committed. (Count)
system.cpu.commit.committedInstType_0::No_OpClass     34422959      1.75%      1.75% # Class of committed instruction (Count)
system.cpu.commit.committedInstType_0::IntAlu   1462981070     74.22%     75.96% # Class of committed instruction (Count)
system.cpu.commit.committedInstType_0::IntMult          240      0.00%     75.96% # Class of committed instruction (Count)
system.cpu.commit.committedInstType_0::IntDiv     30867712      1.57%     77.53% # Class of committed instruction (Count)
system.cpu.commit.committedInstType_0::FloatAdd      2315762      0.12%     77.65% # Class of committed instruction (Count)
system.cpu.commit.committedInstType_0::FloatCmp            0      0.00%     77.65% # Class of committed instruction (Count)
system.cpu.commit.committedInstType_0::FloatCvt         1248      0.00%     77.65% # Class of committed instruction (Count)
system.cpu.commit.committedInstType_0::FloatMult            0      0.00%     77.65% # Class of committed instruction (Count)
system.cpu.commit.committedInstType_0::FloatMultAcc            0      0.00%     77.65% # Class of committed instruction (Count)
system.cpu.commit.committedInstType_0::FloatDiv            0      0.00%     77.65% # Class of committed instruction (Count)
system.cpu.commit.committedInstType_0::FloatMisc            0      0.00%     77.65% # Class of committed instruction (Count)
system.cpu.commit.committedInstType_0::FloatSqrt            0      0.00%     77.65% # Class of committed instruction (Count)
system.cpu.commit.committedInstType_0::SimdAdd      1785056      0.09%     77.74% # Class of committed instruction (Count)
system.cpu.commit.committedInstType_0::SimdAddAcc            0      0.00%     77.74% # Class of committed instruction (Count)
system.cpu.commit.committedInstType_0::SimdAlu     10755023      0.55%     78.28% # Class of committed instruction (Count)
system.cpu.commit.committedInstType_0::SimdCmp         6048      0.00%     78.28% # Class of committed instruction (Count)
system.cpu.commit.committedInstType_0::SimdCvt      4783348      0.24%     78.52% # Class of committed instruction (Count)
system.cpu.commit.committedInstType_0::SimdMisc      5982772      0.30%     78.83% # Class of committed instruction (Count)
system.cpu.commit.committedInstType_0::SimdMult            0      0.00%     78.83% # Class of committed instruction (Count)
system.cpu.commit.committedInstType_0::SimdMultAcc            0      0.00%     78.83% # Class of committed instruction (Count)
system.cpu.commit.committedInstType_0::SimdMatMultAcc            0      0.00%     78.83% # Class of committed instruction (Count)
system.cpu.commit.committedInstType_0::SimdShift       871580      0.04%     78.87% # Class of committed instruction (Count)
system.cpu.commit.committedInstType_0::SimdShiftAcc            0      0.00%     78.87% # Class of committed instruction (Count)
system.cpu.commit.committedInstType_0::SimdDiv            0      0.00%     78.87% # Class of committed instruction (Count)
system.cpu.commit.committedInstType_0::SimdSqrt            0      0.00%     78.87% # Class of committed instruction (Count)
system.cpu.commit.committedInstType_0::SimdFloatAdd          151      0.00%     78.87% # Class of committed instruction (Count)
system.cpu.commit.committedInstType_0::SimdFloatAlu            0      0.00%     78.87% # Class of committed instruction (Count)
system.cpu.commit.committedInstType_0::SimdFloatCmp            0      0.00%     78.87% # Class of committed instruction (Count)
system.cpu.commit.committedInstType_0::SimdFloatCvt          756      0.00%     78.87% # Class of committed instruction (Count)
system.cpu.commit.committedInstType_0::SimdFloatDiv           75      0.00%     78.87% # Class of committed instruction (Count)
system.cpu.commit.committedInstType_0::SimdFloatMisc            0      0.00%     78.87% # Class of committed instruction (Count)
system.cpu.commit.committedInstType_0::SimdFloatMult           74      0.00%     78.87% # Class of committed instruction (Count)
system.cpu.commit.committedInstType_0::SimdFloatMultAcc            0      0.00%     78.87% # Class of committed instruction (Count)
system.cpu.commit.committedInstType_0::SimdFloatMatMultAcc            0      0.00%     78.87% # Class of committed instruction (Count)
system.cpu.commit.committedInstType_0::SimdFloatSqrt            0      0.00%     78.87% # Class of committed instruction (Count)
system.cpu.commit.committedInstType_0::SimdReduceAdd            0      0.00%     78.87% # Class of committed instruction (Count)
system.cpu.commit.committedInstType_0::SimdReduceAlu            0      0.00%     78.87% # Class of committed instruction (Count)
system.cpu.commit.committedInstType_0::SimdReduceCmp            0      0.00%     78.87% # Class of committed instruction (Count)
system.cpu.commit.committedInstType_0::SimdFloatReduceAdd            0      0.00%     78.87% # Class of committed instruction (Count)
system.cpu.commit.committedInstType_0::SimdFloatReduceCmp            0      0.00%     78.87% # Class of committed instruction (Count)
system.cpu.commit.committedInstType_0::SimdAes            0      0.00%     78.87% # Class of committed instruction (Count)
system.cpu.commit.committedInstType_0::SimdAesMix            0      0.00%     78.87% # Class of committed instruction (Count)
system.cpu.commit.committedInstType_0::SimdSha1Hash            0      0.00%     78.87% # Class of committed instruction (Count)
system.cpu.commit.committedInstType_0::SimdSha1Hash2            0      0.00%     78.87% # Class of committed instruction (Count)
system.cpu.commit.committedInstType_0::SimdSha256Hash            0      0.00%     78.87% # Class of committed instruction (Count)
system.cpu.commit.committedInstType_0::SimdSha256Hash2            0      0.00%     78.87% # Class of committed instruction (Count)
system.cpu.commit.committedInstType_0::SimdShaSigma2            0      0.00%     78.87% # Class of committed instruction (Count)
system.cpu.commit.committedInstType_0::SimdShaSigma3            0      0.00%     78.87% # Class of committed instruction (Count)
system.cpu.commit.committedInstType_0::SimdPredAlu            0      0.00%     78.87% # Class of committed instruction (Count)
system.cpu.commit.committedInstType_0::Matrix            0      0.00%     78.87% # Class of committed instruction (Count)
system.cpu.commit.committedInstType_0::MatrixMov            0      0.00%     78.87% # Class of committed instruction (Count)
system.cpu.commit.committedInstType_0::MatrixOP            0      0.00%     78.87% # Class of committed instruction (Count)
system.cpu.commit.committedInstType_0::MemRead    192670659      9.77%     88.65% # Class of committed instruction (Count)
system.cpu.commit.committedInstType_0::MemWrite    195011704      9.89%     98.54% # Class of committed instruction (Count)
system.cpu.commit.committedInstType_0::FloatMemRead     11280119      0.57%     99.11% # Class of committed instruction (Count)
system.cpu.commit.committedInstType_0::FloatMemWrite     17511560      0.89%    100.00% # Class of committed instruction (Count)
system.cpu.commit.committedInstType_0::IprAccess            0      0.00%    100.00% # Class of committed instruction (Count)
system.cpu.commit.committedInstType_0::InstPrefetch            0      0.00%    100.00% # Class of committed instruction (Count)
system.cpu.commit.committedInstType_0::SimdUnitStrideLoad            0      0.00%    100.00% # Class of committed instruction (Count)
system.cpu.commit.committedInstType_0::SimdUnitStrideStore            0      0.00%    100.00% # Class of committed instruction (Count)
system.cpu.commit.committedInstType_0::SimdUnitStrideMaskLoad            0      0.00%    100.00% # Class of committed instruction (Count)
system.cpu.commit.committedInstType_0::SimdUnitStrideMaskStore            0      0.00%    100.00% # Class of committed instruction (Count)
system.cpu.commit.committedInstType_0::SimdStridedLoad            0      0.00%    100.00% # Class of committed instruction (Count)
system.cpu.commit.committedInstType_0::SimdStridedStore            0      0.00%    100.00% # Class of committed instruction (Count)
system.cpu.commit.committedInstType_0::SimdIndexedLoad            0      0.00%    100.00% # Class of committed instruction (Count)
system.cpu.commit.committedInstType_0::SimdIndexedStore            0      0.00%    100.00% # Class of committed instruction (Count)
system.cpu.commit.committedInstType_0::SimdWholeRegisterLoad            0      0.00%    100.00% # Class of committed instruction (Count)
system.cpu.commit.committedInstType_0::SimdWholeRegisterStore            0      0.00%    100.00% # Class of committed instruction (Count)
system.cpu.commit.committedInstType_0::SimdUnitStrideFaultOnlyFirstLoad            0      0.00%    100.00% # Class of committed instruction (Count)
system.cpu.commit.committedInstType_0::SimdUnitStrideSegmentedLoad            0      0.00%    100.00% # Class of committed instruction (Count)
system.cpu.commit.committedInstType_0::SimdUnitStrideSegmentedStore            0      0.00%    100.00% # Class of committed instruction (Count)
system.cpu.commit.committedInstType_0::SimdExt            0      0.00%    100.00% # Class of committed instruction (Count)
system.cpu.commit.committedInstType_0::SimdFloatExt            0      0.00%    100.00% # Class of committed instruction (Count)
system.cpu.commit.committedInstType_0::SimdConfig            0      0.00%    100.00% # Class of committed instruction (Count)
system.cpu.commit.committedInstType_0::total   1971247916                       # Class of committed instruction (Count)
system.cpu.commit.commitEligibleSamples     136552370                       # number cycles where commit BW limit reached (Cycle)
system.cpu.commitStats0.numInsts            861347334                       # Number of instructions committed (thread level) (Count)
system.cpu.commitStats0.numOps             1971247916                       # Number of ops (including micro ops) committed (thread level) (Count)
system.cpu.commitStats0.numInstsNotNOP      861347334                       # Number of instructions committed excluding NOPs or prefetches (Count)
system.cpu.commitStats0.numOpsNotNOP       1971247916                       # Number of Ops (including micro ops) Simulated (Count)
system.cpu.commitStats0.cpi                  1.179428                       # CPI: cycles per instruction (thread level) ((Cycle/Count))
system.cpu.commitStats0.ipc                  0.847869                       # IPC: instructions per cycle (thread level) ((Count/Cycle))
system.cpu.commitStats0.numMemRefs          416474042                       # Number of memory references committed (Count)
system.cpu.commitStats0.numFpInsts           58916744                       # Number of float instructions (Count)
system.cpu.commitStats0.numIntInsts        1815241328                       # Number of integer instructions (Count)
system.cpu.commitStats0.numLoadInsts        203950778                       # Number of load instructions (Count)
system.cpu.commitStats0.numStoreInsts       212523264                       # Number of store instructions (Count)
system.cpu.commitStats0.numVecInsts                 0                       # Number of vector instructions (Count)
system.cpu.commitStats0.committedInstType::No_OpClass     34422959      1.75%      1.75% # Class of committed instruction. (Count)
system.cpu.commitStats0.committedInstType::IntAlu   1462981070     74.22%     75.96% # Class of committed instruction. (Count)
system.cpu.commitStats0.committedInstType::IntMult          240      0.00%     75.96% # Class of committed instruction. (Count)
system.cpu.commitStats0.committedInstType::IntDiv     30867712      1.57%     77.53% # Class of committed instruction. (Count)
system.cpu.commitStats0.committedInstType::FloatAdd      2315762      0.12%     77.65% # Class of committed instruction. (Count)
system.cpu.commitStats0.committedInstType::FloatCmp            0      0.00%     77.65% # Class of committed instruction. (Count)
system.cpu.commitStats0.committedInstType::FloatCvt         1248      0.00%     77.65% # Class of committed instruction. (Count)
system.cpu.commitStats0.committedInstType::FloatMult            0      0.00%     77.65% # Class of committed instruction. (Count)
system.cpu.commitStats0.committedInstType::FloatMultAcc            0      0.00%     77.65% # Class of committed instruction. (Count)
system.cpu.commitStats0.committedInstType::FloatDiv            0      0.00%     77.65% # Class of committed instruction. (Count)
system.cpu.commitStats0.committedInstType::FloatMisc            0      0.00%     77.65% # Class of committed instruction. (Count)
system.cpu.commitStats0.committedInstType::FloatSqrt            0      0.00%     77.65% # Class of committed instruction. (Count)
system.cpu.commitStats0.committedInstType::SimdAdd      1785056      0.09%     77.74% # Class of committed instruction. (Count)
system.cpu.commitStats0.committedInstType::SimdAddAcc            0      0.00%     77.74% # Class of committed instruction. (Count)
system.cpu.commitStats0.committedInstType::SimdAlu     10755023      0.55%     78.28% # Class of committed instruction. (Count)
system.cpu.commitStats0.committedInstType::SimdCmp         6048      0.00%     78.28% # Class of committed instruction. (Count)
system.cpu.commitStats0.committedInstType::SimdCvt      4783348      0.24%     78.52% # Class of committed instruction. (Count)
system.cpu.commitStats0.committedInstType::SimdMisc      5982772      0.30%     78.83% # Class of committed instruction. (Count)
system.cpu.commitStats0.committedInstType::SimdMult            0      0.00%     78.83% # Class of committed instruction. (Count)
system.cpu.commitStats0.committedInstType::SimdMultAcc            0      0.00%     78.83% # Class of committed instruction. (Count)
system.cpu.commitStats0.committedInstType::SimdMatMultAcc            0      0.00%     78.83% # Class of committed instruction. (Count)
system.cpu.commitStats0.committedInstType::SimdShift       871580      0.04%     78.87% # Class of committed instruction. (Count)
system.cpu.commitStats0.committedInstType::SimdShiftAcc            0      0.00%     78.87% # Class of committed instruction. (Count)
system.cpu.commitStats0.committedInstType::SimdDiv            0      0.00%     78.87% # Class of committed instruction. (Count)
system.cpu.commitStats0.committedInstType::SimdSqrt            0      0.00%     78.87% # Class of committed instruction. (Count)
system.cpu.commitStats0.committedInstType::SimdFloatAdd          151      0.00%     78.87% # Class of committed instruction. (Count)
system.cpu.commitStats0.committedInstType::SimdFloatAlu            0      0.00%     78.87% # Class of committed instruction. (Count)
system.cpu.commitStats0.committedInstType::SimdFloatCmp            0      0.00%     78.87% # Class of committed instruction. (Count)
system.cpu.commitStats0.committedInstType::SimdFloatCvt          756      0.00%     78.87% # Class of committed instruction. (Count)
system.cpu.commitStats0.committedInstType::SimdFloatDiv           75      0.00%     78.87% # Class of committed instruction. (Count)
system.cpu.commitStats0.committedInstType::SimdFloatMisc            0      0.00%     78.87% # Class of committed instruction. (Count)
system.cpu.commitStats0.committedInstType::SimdFloatMult           74      0.00%     78.87% # Class of committed instruction. (Count)
system.cpu.commitStats0.committedInstType::SimdFloatMultAcc            0      0.00%     78.87% # Class of committed instruction. (Count)
system.cpu.commitStats0.committedInstType::SimdFloatMatMultAcc            0      0.00%     78.87% # Class of committed instruction. (Count)
system.cpu.commitStats0.committedInstType::SimdFloatSqrt            0      0.00%     78.87% # Class of committed instruction. (Count)
system.cpu.commitStats0.committedInstType::SimdReduceAdd            0      0.00%     78.87% # Class of committed instruction. (Count)
system.cpu.commitStats0.committedInstType::SimdReduceAlu            0      0.00%     78.87% # Class of committed instruction. (Count)
system.cpu.commitStats0.committedInstType::SimdReduceCmp            0      0.00%     78.87% # Class of committed instruction. (Count)
system.cpu.commitStats0.committedInstType::SimdFloatReduceAdd            0      0.00%     78.87% # Class of committed instruction. (Count)
system.cpu.commitStats0.committedInstType::SimdFloatReduceCmp            0      0.00%     78.87% # Class of committed instruction. (Count)
system.cpu.commitStats0.committedInstType::SimdAes            0      0.00%     78.87% # Class of committed instruction. (Count)
system.cpu.commitStats0.committedInstType::SimdAesMix            0      0.00%     78.87% # Class of committed instruction. (Count)
system.cpu.commitStats0.committedInstType::SimdSha1Hash            0      0.00%     78.87% # Class of committed instruction. (Count)
system.cpu.commitStats0.committedInstType::SimdSha1Hash2            0      0.00%     78.87% # Class of committed instruction. (Count)
system.cpu.commitStats0.committedInstType::SimdSha256Hash            0      0.00%     78.87% # Class of committed instruction. (Count)
system.cpu.commitStats0.committedInstType::SimdSha256Hash2            0      0.00%     78.87% # Class of committed instruction. (Count)
system.cpu.commitStats0.committedInstType::SimdShaSigma2            0      0.00%     78.87% # Class of committed instruction. (Count)
system.cpu.commitStats0.committedInstType::SimdShaSigma3            0      0.00%     78.87% # Class of committed instruction. (Count)
system.cpu.commitStats0.committedInstType::SimdPredAlu            0      0.00%     78.87% # Class of committed instruction. (Count)
system.cpu.commitStats0.committedInstType::Matrix            0      0.00%     78.87% # Class of committed instruction. (Count)
system.cpu.commitStats0.committedInstType::MatrixMov            0      0.00%     78.87% # Class of committed instruction. (Count)
system.cpu.commitStats0.committedInstType::MatrixOP            0      0.00%     78.87% # Class of committed instruction. (Count)
system.cpu.commitStats0.committedInstType::MemRead    192670659      9.77%     88.65% # Class of committed instruction. (Count)
system.cpu.commitStats0.committedInstType::MemWrite    195011704      9.89%     98.54% # Class of committed instruction. (Count)
system.cpu.commitStats0.committedInstType::FloatMemRead     11280119      0.57%     99.11% # Class of committed instruction. (Count)
system.cpu.commitStats0.committedInstType::FloatMemWrite     17511560      0.89%    100.00% # Class of committed instruction. (Count)
system.cpu.commitStats0.committedInstType::IprAccess            0      0.00%    100.00% # Class of committed instruction. (Count)
system.cpu.commitStats0.committedInstType::InstPrefetch            0      0.00%    100.00% # Class of committed instruction. (Count)
system.cpu.commitStats0.committedInstType::SimdUnitStrideLoad            0      0.00%    100.00% # Class of committed instruction. (Count)
system.cpu.commitStats0.committedInstType::SimdUnitStrideStore            0      0.00%    100.00% # Class of committed instruction. (Count)
system.cpu.commitStats0.committedInstType::SimdUnitStrideMaskLoad            0      0.00%    100.00% # Class of committed instruction. (Count)
system.cpu.commitStats0.committedInstType::SimdUnitStrideMaskStore            0      0.00%    100.00% # Class of committed instruction. (Count)
system.cpu.commitStats0.committedInstType::SimdStridedLoad            0      0.00%    100.00% # Class of committed instruction. (Count)
system.cpu.commitStats0.committedInstType::SimdStridedStore            0      0.00%    100.00% # Class of committed instruction. (Count)
system.cpu.commitStats0.committedInstType::SimdIndexedLoad            0      0.00%    100.00% # Class of committed instruction. (Count)
system.cpu.commitStats0.committedInstType::SimdIndexedStore            0      0.00%    100.00% # Class of committed instruction. (Count)
system.cpu.commitStats0.committedInstType::SimdWholeRegisterLoad            0      0.00%    100.00% # Class of committed instruction. (Count)
system.cpu.commitStats0.committedInstType::SimdWholeRegisterStore            0      0.00%    100.00% # Class of committed instruction. (Count)
system.cpu.commitStats0.committedInstType::SimdUnitStrideFaultOnlyFirstLoad            0      0.00%    100.00% # Class of committed instruction. (Count)
system.cpu.commitStats0.committedInstType::SimdUnitStrideSegmentedLoad            0      0.00%    100.00% # Class of committed instruction. (Count)
system.cpu.commitStats0.committedInstType::SimdUnitStrideSegmentedStore            0      0.00%    100.00% # Class of committed instruction. (Count)
system.cpu.commitStats0.committedInstType::SimdExt            0      0.00%    100.00% # Class of committed instruction. (Count)
system.cpu.commitStats0.committedInstType::SimdFloatExt            0      0.00%    100.00% # Class of committed instruction. (Count)
system.cpu.commitStats0.committedInstType::SimdConfig            0      0.00%    100.00% # Class of committed instruction. (Count)
system.cpu.commitStats0.committedInstType::total   1971247916                       # Class of committed instruction. (Count)
system.cpu.commitStats0.committedControl::IsControl    251842834                       # Class of control type instructions committed (Count)
system.cpu.commitStats0.committedControl::IsDirectControl    230964857                       # Class of control type instructions committed (Count)
system.cpu.commitStats0.committedControl::IsIndirectControl     20800440                       # Class of control type instructions committed (Count)
system.cpu.commitStats0.committedControl::IsCondControl    211853070                       # Class of control type instructions committed (Count)
system.cpu.commitStats0.committedControl::IsUncondControl     39912227                       # Class of control type instructions committed (Count)
system.cpu.commitStats0.committedControl::IsCall     11677179                       # Class of control type instructions committed (Count)
system.cpu.commitStats0.committedControl::IsReturn     11677174                       # Class of control type instructions committed (Count)
system.cpu.decode.idleCycles                125684445                       # Number of cycles decode is idle (Cycle)
system.cpu.decode.blockedCycles             484800363                       # Number of cycles decode is blocked (Cycle)
system.cpu.decode.runCycles                 303118987                       # Number of cycles decode is running (Cycle)
system.cpu.decode.unblockCycles              85374902                       # Number of cycles decode is unblocking (Cycle)
system.cpu.decode.squashCycles               11620718                       # Number of cycles decode is squashing (Cycle)
system.cpu.decode.branchResolved            220731779                       # Number of times decode resolved a branch (Count)
system.cpu.decode.branchMispred               1524511                       # Number of times decode detected a branch misprediction (Count)
system.cpu.decode.decodedInsts             2849522180                       # Number of instructions handled by decode (Count)
system.cpu.decode.squashedInsts               8290158                       # Number of squashed instructions handled by decode (Count)
system.cpu.executeStats0.numInsts          2333109238                       # Number of executed instructions (Count)
system.cpu.executeStats0.numNop                     0                       # Number of nop insts executed (Count)
system.cpu.executeStats0.numBranches        280346986                       # Number of branches executed (Count)
system.cpu.executeStats0.numLoadInsts       244589423                       # Number of load instructions executed (Count)
system.cpu.executeStats0.numStoreInsts      235665279                       # Number of stores executed (Count)
system.cpu.executeStats0.instRate            2.296600                       # Inst execution rate ((Count/Cycle))
system.cpu.executeStats0.numCCRegReads     1406573656                       # Number of times the CC registers were read (Count)
system.cpu.executeStats0.numCCRegWrites     744546703                       # Number of times the CC registers were written (Count)
system.cpu.executeStats0.numFpRegReads       98350291                       # Number of times the floating registers were read (Count)
system.cpu.executeStats0.numFpRegWrites      52764873                       # Number of times the floating registers were written (Count)
system.cpu.executeStats0.numIntRegReads    2839716701                       # Number of times the integer registers were read (Count)
system.cpu.executeStats0.numIntRegWrites   1649144618                       # Number of times the integer registers were written (Count)
system.cpu.executeStats0.numMemRefs         480254702                       # Number of memory refs (Count)
system.cpu.executeStats0.numMiscRegReads    865282400                       # Number of times the Misc registers were read (Count)
system.cpu.executeStats0.numMiscRegWrites          702                       # Number of times the Misc registers were written (Count)
system.cpu.executeStats0.numVecAluAccesses            0                       # Number of vector alu accesses (Count)
system.cpu.executeStats0.numDiscardedOps            0                       # Number of ops (including micro ops) which were discarded before commit (Count)
system.cpu.fetch.predictedBranches          285166626                       # Number of branches that fetch has predicted taken (Count)
system.cpu.fetch.cycles                     905582580                       # Number of cycles fetch has run and was not squashing or blocked (Cycle)
system.cpu.fetch.squashCycles                26272324                       # Number of cycles fetch has spent squashing (Cycle)
system.cpu.fetch.miscStallCycles                65829                       # Number of cycles fetch has spent waiting on interrupts, or bad addresses, or out of MSHRs (Cycle)
system.cpu.fetch.pendingTrapStallCycles        559587                       # Number of stall cycles due to pending traps (Cycle)
system.cpu.fetch.cacheLines                 155087511                       # Number of cache lines fetched (Count)
[...]
system.mem_ctrl.dram.bytesWritten::total        43456                       # Number of bytes written to this memory (Byte)
system.mem_ctrl.dram.numReads::cpu.inst          1283                       # Number of read requests responded to by this memory (Count)
system.mem_ctrl.dram.numReads::cpu.data          4132                       # Number of read requests responded to by this memory (Count)
system.mem_ctrl.dram.numReads::total             5415                       # Number of read requests responded to by this memory (Count)
system.mem_ctrl.dram.numWrites::writebacks          679                       # Number of write requests responded to by this memory (Count)
system.mem_ctrl.dram.numWrites::total             679                       # Number of write requests responded to by this memory (Count)
system.mem_ctrl.dram.bwRead::cpu.inst       431344326                       # Total read bandwidth from this memory ((Byte/Second))
system.mem_ctrl.dram.bwRead::cpu.data      1389177519                       # Total read bandwidth from this memory ((Byte/Second))
system.mem_ctrl.dram.bwRead::total         1820521845                       # Total read bandwidth from this memory ((Byte/Second))
system.mem_ctrl.dram.bwInstRead::cpu.inst    431344326                       # Instruction read bandwidth from this memory ((Byte/Second))
system.mem_ctrl.dram.bwInstRead::total      431344326                       # Instruction read bandwidth from this memory ((Byte/Second))
system.mem_ctrl.dram.bwWrite::writebacks    228279655                       # Write bandwidth from this memory ((Byte/Second))
system.mem_ctrl.dram.bwWrite::total         228279655                       # Write bandwidth from this memory ((Byte/Second))
system.mem_ctrl.dram.bwTotal::writebacks    228279655                       # Total bandwidth to/from this memory ((Byte/Second))
system.mem_ctrl.dram.bwTotal::cpu.inst      431344326                       # Total bandwidth to/from this memory ((Byte/Second))
system.mem_ctrl.dram.bwTotal::cpu.data     1389177519                       # Total bandwidth to/from this memory ((Byte/Second))
system.mem_ctrl.dram.bwTotal::total        2048801500                       # Total bandwidth to/from this memory ((Byte/Second))
system.mem_ctrl.dram.readBursts                  5396                       # Number of DRAM read bursts (Count)
system.mem_ctrl.dram.writeBursts                  682                       # Number of DRAM write bursts (Count)
system.mem_ctrl.dram.perBankRdBursts::0           478                       # Per bank write bursts (Count)
system.mem_ctrl.dram.perBankRdBursts::1           337                       # Per bank write bursts (Count)
system.mem_ctrl.dram.perBankRdBursts::2           352                       # Per bank write bursts (Count)
system.mem_ctrl.dram.perBankRdBursts::3           363                       # Per bank write bursts (Count)
system.mem_ctrl.dram.perBankRdBursts::4           337                       # Per bank write bursts (Count)
system.mem_ctrl.dram.perBankRdBursts::5           506                       # Per bank write bursts (Count)
system.mem_ctrl.dram.perBankRdBursts::6           397                       # Per bank write bursts (Count)
system.mem_ctrl.dram.perBankRdBursts::7           269                       # Per bank write bursts (Count)
system.mem_ctrl.dram.perBankRdBursts::8           194                       # Per bank write bursts (Count)
system.mem_ctrl.dram.perBankRdBursts::9           305                       # Per bank write bursts (Count)
system.mem_ctrl.dram.perBankRdBursts::10          225                       # Per bank write bursts (Count)
system.mem_ctrl.dram.perBankRdBursts::11          260                       # Per bank write bursts (Count)
system.mem_ctrl.dram.perBankRdBursts::12          251                       # Per bank write bursts (Count)
system.mem_ctrl.dram.perBankRdBursts::13          387                       # Per bank write bursts (Count)
system.mem_ctrl.dram.perBankRdBursts::14          258                       # Per bank write bursts (Count)
system.mem_ctrl.dram.perBankRdBursts::15          477                       # Per bank write bursts (Count)
system.mem_ctrl.dram.perBankWrBursts::0            50                       # Per bank write bursts (Count)
system.mem_ctrl.dram.perBankWrBursts::1            98                       # Per bank write bursts (Count)
system.mem_ctrl.dram.perBankWrBursts::2           100                       # Per bank write bursts (Count)
system.mem_ctrl.dram.perBankWrBursts::3           121                       # Per bank write bursts (Count)
system.mem_ctrl.dram.perBankWrBursts::4           117                       # Per bank write bursts (Count)
system.mem_ctrl.dram.perBankWrBursts::5            11                       # Per bank write bursts (Count)
system.mem_ctrl.dram.perBankWrBursts::6            16                       # Per bank write bursts (Count)
system.mem_ctrl.dram.perBankWrBursts::7             6                       # Per bank write bursts (Count)
system.mem_ctrl.dram.perBankWrBursts::8             2                       # Per bank write bursts (Count)
system.mem_ctrl.dram.perBankWrBursts::9            10                       # Per bank write bursts (Count)
system.mem_ctrl.dram.perBankWrBursts::10            0                       # Per bank write bursts (Count)
system.mem_ctrl.dram.perBankWrBursts::11            5                       # Per bank write bursts (Count)
system.mem_ctrl.dram.perBankWrBursts::12            4                       # Per bank write bursts (Count)
system.mem_ctrl.dram.perBankWrBursts::13           60                       # Per bank write bursts (Count)
system.mem_ctrl.dram.perBankWrBursts::14            3                       # Per bank write bursts (Count)
system.mem_ctrl.dram.perBankWrBursts::15           79                       # Per bank write bursts (Count)
system.mem_ctrl.dram.totQLat                 64053750                       # Total ticks spent queuing (Tick)
system.mem_ctrl.dram.totBusLat               26980000                       # Total ticks spent in databus transfers (Tick)
system.mem_ctrl.dram.totMemAccLat           165228750                       # Total ticks spent from burst creation until serviced by the DRAM (Tick)
system.mem_ctrl.dram.avgQLat                 11870.60                       # Average queueing delay per DRAM burst ((Tick/Count))
system.mem_ctrl.dram.avgBusLat                5000.00                       # Average bus latency per DRAM burst ((Tick/Count))
system.mem_ctrl.dram.avgMemAccLat            30620.60                       # Average memory access latency per DRAM burst ((Tick/Count))
system.mem_ctrl.dram.readRowHits                 4253                       # Number of row buffer hits during reads (Count)
system.mem_ctrl.dram.writeRowHits                 571                       # Number of row buffer hits during writes (Count)
system.mem_ctrl.dram.readRowHitRate             78.82                       # Row buffer hit rate for reads (Ratio)
system.mem_ctrl.dram.writeRowHitRate            83.72                       # Row buffer hit rate for writes (Ratio)
system.mem_ctrl.dram.bytesPerActivate::samples         1251                       # Bytes accessed per row activation (Byte)
system.mem_ctrl.dram.bytesPerActivate::mean   311.251799                       # Bytes accessed per row activation (Byte)
system.mem_ctrl.dram.bytesPerActivate::gmean   176.010926                       # Bytes accessed per row activation (Byte)
system.mem_ctrl.dram.bytesPerActivate::stdev   351.558127                       # Bytes accessed per row activation (Byte)
system.mem_ctrl.dram.bytesPerActivate::0-127          470     37.57%     37.57% # Bytes accessed per row activation (Byte)
system.mem_ctrl.dram.bytesPerActivate::128-255          362     28.94%     66.51% # Bytes accessed per row activation (Byte)
system.mem_ctrl.dram.bytesPerActivate::256-383          104      8.31%     74.82% # Bytes accessed per row activation (Byte)
system.mem_ctrl.dram.bytesPerActivate::384-511           35      2.80%     77.62% # Bytes accessed per row activation (Byte)
system.mem_ctrl.dram.bytesPerActivate::512-639           27      2.16%     79.78% # Bytes accessed per row activation (Byte)
system.mem_ctrl.dram.bytesPerActivate::640-767           23      1.84%     81.61% # Bytes accessed per row activation (Byte)
system.mem_ctrl.dram.bytesPerActivate::768-895           17      1.36%     82.97% # Bytes accessed per row activation (Byte)
system.mem_ctrl.dram.bytesPerActivate::896-1023            9      0.72%     83.69% # Bytes accessed per row activation (Byte)
system.mem_ctrl.dram.bytesPerActivate::1024-1151          204     16.31%    100.00% # Bytes accessed per row activation (Byte)
system.mem_ctrl.dram.bytesPerActivate::total         1251                       # Bytes accessed per row activation (Byte)
system.mem_ctrl.dram.dramBytesRead             345344                       # Total bytes read (Byte)
system.mem_ctrl.dram.dramBytesWritten           43648                       # Total bytes written (Byte)
system.mem_ctrl.dram.avgRdBW              1814.134049                       # Average DRAM read bandwidth in MiBytes/s ((Byte/Second))
system.mem_ctrl.dram.avgWrBW               229.288255                       # Average DRAM write bandwidth in MiBytes/s ((Byte/Second))
system.mem_ctrl.dram.peakBW                  12800.00                       # Theoretical peak bandwidth in MiByte/s ((Byte/Second))
system.mem_ctrl.dram.busUtil                    15.96                       # Data bus utilization in percentage (Ratio)
system.mem_ctrl.dram.busUtilRead                14.17                       # Data bus utilization in percentage for reads (Ratio)
system.mem_ctrl.dram.busUtilWrite                1.79                       # Data bus utilization in percentage for writes (Ratio)
system.mem_ctrl.dram.pageHitRate                79.37                       # Row buffer hit rate, read and write combined (Ratio)
system.mem_ctrl.dram.power_state.pwrStateResidencyTicks::UNDEFINED    190363000                       # Cumulative time (in ticks) in various power states (Tick)
system.mem_ctrl.dram.rank0.actEnergy          4855200                       # Energy for activate commands per rank (pJ) (Joule)
system.mem_ctrl.dram.rank0.preEnergy          2573010                       # Energy for precharge commands per rank (pJ) (Joule)
system.mem_ctrl.dram.rank0.readEnergy        21698460                       # Energy for read commands per rank (pJ) (Joule)
system.mem_ctrl.dram.rank0.writeEnergy        2709180                       # Energy for write commands per rank (pJ) (Joule)
system.mem_ctrl.dram.rank0.refreshEnergy 14751360.000000                       # Energy for refresh commands per rank (pJ) (Joule)
system.mem_ctrl.dram.rank0.actBackEnergy     82282350                       # Energy for active background per rank (pJ) (Joule)
system.mem_ctrl.dram.rank0.preBackEnergy      3808800                       # Energy for precharge background per rank (pJ) (Joule)
system.mem_ctrl.dram.rank0.actPowerDownEnergy            0                       # Energy for active power-down per rank (pJ) (Joule)
system.mem_ctrl.dram.rank0.prePowerDownEnergy            0                       # Energy for precharge power-down per rank (pJ) (Joule)
system.mem_ctrl.dram.rank0.selfRefreshEnergy            0                       # Energy for self refresh per rank (pJ) (Joule)
system.mem_ctrl.dram.rank0.totalEnergy      132678360                       # Total energy per rank (pJ) (Joule)
system.mem_ctrl.dram.rank0.averagePower    696.975568                       # Core power per rank (mW) (Watt)
system.mem_ctrl.dram.rank0.totalIdleTime            0                       # Total Idle time Per DRAM Rank (Tick)
system.mem_ctrl.dram.rank0.pwrStateTime::IDLE      9036500                       # Time in different power states (Tick)
system.mem_ctrl.dram.rank0.pwrStateTime::REF      6240000                       # Time in different power states (Tick)
system.mem_ctrl.dram.rank0.pwrStateTime::SREF            0                       # Time in different power states (Tick)
system.mem_ctrl.dram.rank0.pwrStateTime::PRE_PDN            0                       # Time in different power states (Tick)
system.mem_ctrl.dram.rank0.pwrStateTime::ACT    175086500                       # Time in different power states (Tick)
system.mem_ctrl.dram.rank0.pwrStateTime::ACT_PDN            0                       # Time in different power states (Tick)
system.mem_ctrl.dram.rank1.actEnergy          4098360                       # Energy for activate commands per rank (pJ) (Joule)
system.mem_ctrl.dram.rank1.preEnergy          2174535                       # Energy for precharge commands per rank (pJ) (Joule)
system.mem_ctrl.dram.rank1.readEnergy        16828980                       # Energy for read commands per rank (pJ) (Joule)
system.mem_ctrl.dram.rank1.writeEnergy         850860                       # Energy for write commands per rank (pJ) (Joule)
system.mem_ctrl.dram.rank1.refreshEnergy 14751360.000000                       # Energy for refresh commands per rank (pJ) (Joule)
system.mem_ctrl.dram.rank1.actBackEnergy     83475360                       # Energy for active background per rank (pJ) (Joule)
system.mem_ctrl.dram.rank1.preBackEnergy      2804160                       # Energy for precharge background per rank (pJ) (Joule)
system.mem_ctrl.dram.rank1.actPowerDownEnergy            0                       # Energy for active power-down per rank (pJ) (Joule)
system.mem_ctrl.dram.rank1.prePowerDownEnergy            0                       # Energy for precharge power-down per rank (pJ) (Joule)
system.mem_ctrl.dram.rank1.selfRefreshEnergy            0                       # Energy for self refresh per rank (pJ) (Joule)
system.mem_ctrl.dram.rank1.totalEnergy      124983615                       # Total energy per rank (pJ) (Joule)
system.mem_ctrl.dram.rank1.averagePower    656.554136                       # Core power per rank (mW) (Watt)
system.mem_ctrl.dram.rank1.totalIdleTime            0                       # Total Idle time Per DRAM Rank (Tick)
system.mem_ctrl.dram.rank1.pwrStateTime::IDLE      6513500                       # Time in different power states (Tick)
system.mem_ctrl.dram.rank1.pwrStateTime::REF      6240000                       # Time in different power states (Tick)
system.mem_ctrl.dram.rank1.pwrStateTime::SREF            0                       # Time in different power states (Tick)
system.mem_ctrl.dram.rank1.pwrStateTime::PRE_PDN            0                       # Time in different power states (Tick)
system.mem_ctrl.dram.rank1.pwrStateTime::ACT    177609500                       # Time in different power states (Tick)
system.mem_ctrl.dram.rank1.pwrStateTime::ACT_PDN            0                       # Time in different power states (Tick)
system.mem_ctrl.power_state.pwrStateResidencyTicks::UNDEFINED    190363000                       # Cumulative time (in ticks) in various power states (Tick)
system.membus.transDist::ReadResp                5334                       # Transaction distribution (Count)
system.membus.transDist::WritebackDirty           679                       # Transaction distribution (Count)
system.membus.transDist::CleanEvict              4820                       # Transaction distribution (Count)
system.membus.transDist::ReadExReq                 81                       # Transaction distribution (Count)
system.membus.transDist::ReadExResp                81                       # Transaction distribution (Count)
system.membus.transDist::ReadSharedReq           5334                       # Transaction distribution (Count)
system.membus.pktCount_system.l2_cache.mem_side_port::system.mem_ctrl.port        16329                       # Packet count per connected requestor and responder (Count)
system.membus.pktCount_system.l2_cache.mem_side_port::total        16329                       # Packet count per connected requestor and responder (Count)
system.membus.pktCount::total                   16329                       # Packet count per connected requestor and responder (Count)
system.membus.pktSize_system.l2_cache.mem_side_port::system.mem_ctrl.port       390016                       # Cumulative packet size per connected requestor and responder (Byte)
system.membus.pktSize_system.l2_cache.mem_side_port::total       390016                       # Cumulative packet size per connected requestor and responder (Byte)
system.membus.pktSize::total                   390016                       # Cumulative packet size per connected requestor and responder (Byte)
system.membus.snoops                                0                       # Total snoops (Count)
system.membus.snoopTraffic                          0                       # Total snoop traffic (Byte)
system.membus.snoopFanout::samples               5415                       # Request fanout histogram (Count)
system.membus.snoopFanout::mean                     0                       # Request fanout histogram (Count)
system.membus.snoopFanout::stdev                    0                       # Request fanout histogram (Count)
system.membus.snoopFanout::underflows               0      0.00%      0.00% # Request fanout histogram (Count)
system.membus.snoopFanout::0                     5415    100.00%    100.00% # Request fanout histogram (Count)
system.membus.snoopFanout::1                        0      0.00%    100.00% # Request fanout histogram (Count)
system.membus.snoopFanout::overflows                0      0.00%    100.00% # Request fanout histogram (Count)
system.membus.snoopFanout::min_value                0                       # Request fanout histogram (Count)
system.membus.snoopFanout::max_value                0                       # Request fanout histogram (Count)
system.membus.snoopFanout::total                 5415                       # Request fanout histogram (Count)
system.membus.power_state.pwrStateResidencyTicks::UNDEFINED    190363000                       # Cumulative time (in ticks) in various power states (Tick)
system.membus.reqLayer2.occupancy            13630000                       # Layer occupancy (ticks) (Tick)
system.membus.reqLayer2.utilization               0.1                       # Layer utilization (Ratio)
system.membus.respLayer2.occupancy           28549750                       # Layer occupancy (ticks) (Tick)
system.membus.respLayer2.utilization              0.1                       # Layer utilization (Ratio)
system.membus.snoop_filter.totRequests          10914                       # Total number of requests made to the snoop filter. (Count)
system.membus.snoop_filter.hitSingleRequests         5499                       # Number of requests hitting in the snoop filter with a single holder of the requested data. (Count)
system.membus.snoop_filter.hitMultiRequests            0                       # Number of requests hitting in the snoop filter with multiple (>1) holders of the requested data. (Count)
system.membus.snoop_filter.totSnoops                0                       # Total number of snoops made to the snoop filter. (Count)
system.membus.snoop_filter.hitSingleSnoops            0                       # Number of snoops hitting in the snoop filter with a single holder of the requested data. (Count)
system.membus.snoop_filter.hitMultiSnoops            0                       # Number of snoops hitting in the snoop filter with multiple (>1) holders of the requested data. (Count)
system.workload.inst.arm                            0                       # number of arm instructions executed (Count)
system.workload.inst.quiesce                        0                       # number of quiesce instructions executed (Count)

---------- End Simulation Statistics   ----------
