
---------- Begin Simulation Statistics ----------
simSeconds                                   2.140491                       # Number of seconds simulated (Second)
simTicks                                 2140491246000                       # Number of ticks simulated (Tick)
finalTick                                2140491246000                       # Number of ticks from beginning of simulation (restored from checkpoints and never reset) (Tick)
simFreq                                  1000000000000                       # The number of ticks per simulated second ((Tick/Second))
hostSeconds                                   7862.62                       # Real time elapsed on the host (Second)
hostTickRate                                272236360                       # The number of ticks simulated per host second (ticks/s) ((Tick/Second))
hostMemory                                    8743168                       # Number of bytes of host memory used (Byte)
simInsts                                   1583038392                       # Number of instructions simulated (Count)
simOps                                     2780453202                       # Number of ops (including micro ops) simulated (Count)
hostInstRate                                   201337                       # Simulator instruction rate (inst/s) ((Count/Second))
hostOpRate                                     353629                       # Simulator op (including micro ops) rate (op/s) ((Count/Second))
system.clk_domain.clock                          1000                       # Clock period in ticks (Tick)
system.clk_domain.voltage_domain.voltage            1                       # Voltage in Volts (Volt)
system.cpu.numCycles                       2140491247                       # Number of cpu cycles simulated (Cycle)
system.cpu.cpi                               1.352141                       # CPI: cycles per instruction (core level) ((Cycle/Count))
system.cpu.ipc                               0.739568                       # IPC: instructions per cycle (core level) ((Count/Cycle))
system.cpu.numWorkItemsStarted                      0                       # Number of work items this cpu started (Count)
system.cpu.numWorkItemsCompleted                    0                       # Number of work items this cpu completed (Count)
system.cpu.instsAdded                      4181643873                       # Number of instructions added to the IQ (excludes non-spec) (Count)
system.cpu.nonSpecInstsAdded                   326498                       # Number of non-speculative instructions added to the IQ (Count)
system.cpu.instsIssued                     3881799732                       # Number of instructions issued (Count)
system.cpu.squashedInstsIssued               11080575                       # Number of squashed instructions issued (Count)
system.cpu.squashedInstsExamined           1401517148                       # Number of squashed instructions iterated over during squash; mainly for profiling (Count)
system.cpu.squashedOperandsExamined        1859489883                       # Number of squashed operands that are examined and possibly removed from graph (Count)
system.cpu.squashedNonSpecRemoved                7395                       # Number of squashed non-spec instructions that were removed (Count)
system.cpu.numIssuedDist::samples          2134580198                       # Number of insts issued each cycle (Count)
system.cpu.numIssuedDist::mean               1.818531                       # Number of insts issued each cycle (Count)
system.cpu.numIssuedDist::stdev              2.426695                       # Number of insts issued each cycle (Count)
system.cpu.numIssuedDist::underflows                0      0.00%      0.00% # Number of insts issued each cycle (Count)
system.cpu.numIssuedDist::0                 993699163     46.55%     46.55% # Number of insts issued each cycle (Count)
system.cpu.numIssuedDist::1                 323376823     15.15%     61.70% # Number of insts issued each cycle (Count)
system.cpu.numIssuedDist::2                 241863344     11.33%     73.03% # Number of insts issued each cycle (Count)
system.cpu.numIssuedDist::3                 139943330      6.56%     79.59% # Number of insts issued each cycle (Count)
system.cpu.numIssuedDist::4                  84630000      3.96%     83.55% # Number of insts issued each cycle (Count)
system.cpu.numIssuedDist::5                  76273346      3.57%     87.13% # Number of insts issued each cycle (Count)
system.cpu.numIssuedDist::6                  90971406      4.26%     91.39% # Number of insts issued each cycle (Count)
system.cpu.numIssuedDist::7                  81431223      3.81%     95.20% # Number of insts issued each cycle (Count)
system.cpu.numIssuedDist::8                 102391563      4.80%    100.00% # Number of insts issued each cycle (Count)
system.cpu.numIssuedDist::overflows                 0      0.00%    100.00% # Number of insts issued each cycle (Count)
system.cpu.numIssuedDist::min_value                 0                       # Number of insts issued each cycle (Count)
system.cpu.numIssuedDist::max_value                 8                       # Number of insts issued each cycle (Count)
system.cpu.numIssuedDist::total            2134580198                       # Number of insts issued each cycle (Count)
system.cpu.statFuBusy::No_OpClass                   0      0.00%      0.00% # attempts to use FU when none available (Count)
system.cpu.statFuBusy::IntAlu                13434480     76.26%     76.26% # attempts to use FU when none available (Count)
system.cpu.statFuBusy::IntMult                      0      0.00%     76.26% # attempts to use FU when none available (Count)
system.cpu.statFuBusy::IntDiv                       0      0.00%     76.26% # attempts to use FU when none available (Count)
system.cpu.statFuBusy::FloatAdd                     0      0.00%     76.26% # attempts to use FU when none available (Count)
system.cpu.statFuBusy::FloatCmp                     0      0.00%     76.26% # attempts to use FU when none available (Count)
system.cpu.statFuBusy::FloatCvt                     0      0.00%     76.26% # attempts to use FU when none available (Count)
system.cpu.statFuBusy::FloatMult                    0      0.00%     76.26% # attempts to use FU when none available (Count)
system.cpu.statFuBusy::FloatMultAcc                 0      0.00%     76.26% # attempts to use FU when none available (Count)
system.cpu.statFuBusy::FloatDiv                     0      0.00%     76.26% # attempts to use FU when none available (Count)
system.cpu.statFuBusy::FloatMisc                    0      0.00%     76.26% # attempts to use FU when none available (Count)
system.cpu.statFuBusy::FloatSqrt                    0      0.00%     76.26% # attempts to use FU when none available (Count)
system.cpu.statFuBusy::SimdAdd                     13      0.00%     76.26% # attempts to use FU when none available (Count)
system.cpu.statFuBusy::SimdAddAcc                   0      0.00%     76.26% # attempts to use FU when none available (Count)
system.cpu.statFuBusy::SimdAlu                  26496      0.15%     76.41% # attempts to use FU when none available (Count)
system.cpu.statFuBusy::SimdCmp                      0      0.00%     76.41% # attempts to use FU when none available (Count)
system.cpu.statFuBusy::SimdCvt                    154      0.00%     76.41% # attempts to use FU when none available (Count)
system.cpu.statFuBusy::SimdMisc                    29      0.00%     76.41% # attempts to use FU when none available (Count)
system.cpu.statFuBusy::SimdMult                     0      0.00%     76.41% # attempts to use FU when none available (Count)
system.cpu.statFuBusy::SimdMultAcc                  0      0.00%     76.41% # attempts to use FU when none available (Count)
system.cpu.statFuBusy::SimdMatMultAcc               0      0.00%     76.41% # attempts to use FU when none available (Count)
system.cpu.statFuBusy::SimdShift                   30      0.00%     76.41% # attempts to use FU when none available (Count)
system.cpu.statFuBusy::SimdShiftAcc                 0      0.00%     76.41% # attempts to use FU when none available (Count)
system.cpu.statFuBusy::SimdDiv                      0      0.00%     76.41% # attempts to use FU when none available (Count)
system.cpu.statFuBusy::SimdSqrt                     0      0.00%     76.41% # attempts to use FU when none available (Count)
system.cpu.statFuBusy::SimdFloatAdd                 0      0.00%     76.41% # attempts to use FU when none available (Count)
system.cpu.statFuBusy::SimdFloatAlu                 0      0.00%     76.41% # attempts to use FU when none available (Count)
system.cpu.statFuBusy::SimdFloatCmp                 0      0.00%     76.41% # attempts to use FU when none available (Count)
system.cpu.statFuBusy::SimdFloatCvt           1156194      6.56%     82.97% # attempts to use FU when none available (Count)
system.cpu.statFuBusy::SimdFloatDiv                 0      0.00%     82.97% # attempts to use FU when none available (Count)
system.cpu.statFuBusy::SimdFloatMisc                0      0.00%     82.97% # attempts to use FU when none available (Count)
system.cpu.statFuBusy::SimdFloatMult                0      0.00%     82.97% # attempts to use FU when none available (Count)
system.cpu.statFuBusy::SimdFloatMultAcc             0      0.00%     82.97% # attempts to use FU when none available (Count)
system.cpu.statFuBusy::SimdFloatMatMultAcc            0      0.00%     82.97% # attempts to use FU when none available (Count)
system.cpu.statFuBusy::SimdFloatSqrt                0      0.00%     82.97% # attempts to use FU when none available (Count)
system.cpu.statFuBusy::SimdReduceAdd                0      0.00%     82.97% # attempts to use FU when none available (Count)
system.cpu.statFuBusy::SimdReduceAlu                0      0.00%     82.97% # attempts to use FU when none available (Count)
system.cpu.statFuBusy::SimdReduceCmp                0      0.00%     82.97% # attempts to use FU when none available (Count)
system.cpu.statFuBusy::SimdFloatReduceAdd            0      0.00%     82.97% # attempts to use FU when none available (Count)
system.cpu.statFuBusy::SimdFloatReduceCmp            0      0.00%     82.97% # attempts to use FU when none available (Count)
system.cpu.statFuBusy::SimdAes                      0      0.00%     82.97% # attempts to use FU when none available (Count)
system.cpu.statFuBusy::SimdAesMix                   0      0.00%     82.97% # attempts to use FU when none available (Count)
system.cpu.statFuBusy::SimdSha1Hash                 0      0.00%     82.97% # attempts to use FU when none available (Count)
system.cpu.statFuBusy::SimdSha1Hash2                0      0.00%     82.97% # attempts to use FU when none available (Count)
system.cpu.statFuBusy::SimdSha256Hash               0      0.00%     82.97% # attempts to use FU when none available (Count)
system.cpu.statFuBusy::SimdSha256Hash2              0      0.00%     82.97% # attempts to use FU when none available (Count)
system.cpu.statFuBusy::SimdShaSigma2                0      0.00%     82.97% # attempts to use FU when none available (Count)
system.cpu.statFuBusy::SimdShaSigma3                0      0.00%     82.97% # attempts to use FU when none available (Count)
system.cpu.statFuBusy::SimdPredAlu                  0      0.00%     82.97% # attempts to use FU when none available (Count)
system.cpu.statFuBusy::Matrix                       0      0.00%     82.97% # attempts to use FU when none available (Count)
system.cpu.statFuBusy::MatrixMov                    0      0.00%     82.97% # attempts to use FU when none available (Count)
system.cpu.statFuBusy::MatrixOP                     0      0.00%     82.97% # attempts to use FU when none available (Count)
system.cpu.statFuBusy::MemRead                 766557      4.35%     87.32% # attempts to use FU when none available (Count)
system.cpu.statFuBusy::MemWrite                489160      2.78%     90.10% # attempts to use FU when none available (Count)
system.cpu.statFuBusy::FloatMemRead           1463241      8.31%     98.40% # attempts to use FU when none available (Count)
system.cpu.statFuBusy::FloatMemWrite           281204      1.60%    100.00% # attempts to use FU when none available (Count)
system.cpu.statFuBusy::IprAccess                    0      0.00%    100.00% # attempts to use FU when none available (Count)
system.cpu.statFuBusy::InstPrefetch                 0      0.00%    100.00% # attempts to use FU when none available (Count)
system.cpu.statFuBusy::SimdUnitStrideLoad            0      0.00%    100.00% # attempts to use FU when none available (Count)
system.cpu.statFuBusy::SimdUnitStrideStore            0      0.00%    100.00% # attempts to use FU when none available (Count)
system.cpu.statFuBusy::SimdUnitStrideMaskLoad            0      0.00%    100.00% # attempts to use FU when none available (Count)
system.cpu.statFuBusy::SimdUnitStrideMaskStore            0      0.00%    100.00% # attempts to use FU when none available (Count)
system.cpu.statFuBusy::SimdStridedLoad              0      0.00%    100.00% # attempts to use FU when none available (Count)
system.cpu.statFuBusy::SimdStridedStore             0      0.00%    100.00% # attempts to use FU when none available (Count)
system.cpu.statFuBusy::SimdIndexedLoad              0      0.00%    100.00% # attempts to use FU when none available (Count)
system.cpu.statFuBusy::SimdIndexedStore             0      0.00%    100.00% # attempts to use FU when none available (Count)
system.cpu.statFuBusy::SimdWholeRegisterLoad            0      0.00%    100.00% # attempts to use FU when none available (Count)
system.cpu.statFuBusy::SimdWholeRegisterStore            0      0.00%    100.00% # attempts to use FU when none available (Count)
system.cpu.statFuBusy::SimdUnitStrideFaultOnlyFirstLoad            0      0.00%    100.00% # attempts to use FU when none available (Count)
system.cpu.statFuBusy::SimdUnitStrideSegmentedLoad            0      0.00%    100.00% # attempts to use FU when none available (Count)
system.cpu.statFuBusy::SimdUnitStrideSegmentedStore            0      0.00%    100.00% # attempts to use FU when none available (Count)
system.cpu.statFuBusy::SimdExt                      0      0.00%    100.00% # attempts to use FU when none available (Count)
system.cpu.statFuBusy::SimdFloatExt                 0      0.00%    100.00% # attempts to use FU when none available (Count)
system.cpu.statFuBusy::SimdConfig                   0      0.00%    100.00% # attempts to use FU when none available (Count)
system.cpu.statIssuedInstType_0::No_OpClass     32702560      0.84%      0.84% # Number of instructions issued per FU type, per thread (Count)
system.cpu.statIssuedInstType_0::IntAlu    2687771297     69.24%     70.08% # Number of instructions issued per FU type, per thread (Count)
system.cpu.statIssuedInstType_0::IntMult       827624      0.02%     70.10% # Number of instructions issued per FU type, per thread (Count)
system.cpu.statIssuedInstType_0::IntDiv         71593      0.00%     70.11% # Number of instructions issued per FU type, per thread (Count)
system.cpu.statIssuedInstType_0::FloatAdd    289166949      7.45%     77.56% # Number of instructions issued per FU type, per thread (Count)
system.cpu.statIssuedInstType_0::FloatCmp            0      0.00%     77.56% # Number of instructions issued per FU type, per thread (Count)
system.cpu.statIssuedInstType_0::FloatCvt         1472      0.00%     77.56% # Number of instructions issued per FU type, per thread (Count)
system.cpu.statIssuedInstType_0::FloatMult            0      0.00%     77.56% # Number of instructions issued per FU type, per thread (Count)
system.cpu.statIssuedInstType_0::FloatMultAcc            0      0.00%     77.56% # Number of instructions issued per FU type, per thread (Count)
system.cpu.statIssuedInstType_0::FloatDiv            0      0.00%     77.56% # Number of instructions issued per FU type, per thread (Count)
system.cpu.statIssuedInstType_0::FloatMisc            0      0.00%     77.56% # Number of instructions issued per FU type, per thread (Count)
system.cpu.statIssuedInstType_0::FloatSqrt            0      0.00%     77.56% # Number of instructions issued per FU type, per thread (Count)
system.cpu.statIssuedInstType_0::SimdAdd         7463      0.00%     77.56% # Number of instructions issued per FU type, per thread (Count)
system.cpu.statIssuedInstType_0::SimdAddAcc            0      0.00%     77.56% # Number of instructions issued per FU type, per thread (Count)
system.cpu.statIssuedInstType_0::SimdAlu      1028556      0.03%     77.58% # Number of instructions issued per FU type, per thread (Count)
system.cpu.statIssuedInstType_0::SimdCmp            6      0.00%     77.58% # Number of instructions issued per FU type, per thread (Count)
system.cpu.statIssuedInstType_0::SimdCvt        63901      0.00%     77.58% # Number of instructions issued per FU type, per thread (Count)
system.cpu.statIssuedInstType_0::SimdMisc      8899168      0.23%     77.81% # Number of instructions issued per FU type, per thread (Count)
system.cpu.statIssuedInstType_0::SimdMult            0      0.00%     77.81% # Number of instructions issued per FU type, per thread (Count)
system.cpu.statIssuedInstType_0::SimdMultAcc            0      0.00%     77.81% # Number of instructions issued per FU type, per thread (Count)
system.cpu.statIssuedInstType_0::SimdMatMultAcc            0      0.00%     77.81% # Number of instructions issued per FU type, per thread (Count)
system.cpu.statIssuedInstType_0::SimdShift         4234      0.00%     77.81% # Number of instructions issued per FU type, per thread (Count)
system.cpu.statIssuedInstType_0::SimdShiftAcc            0      0.00%     77.81% # Number of instructions issued per FU type, per thread (Count)
system.cpu.statIssuedInstType_0::SimdDiv            0      0.00%     77.81% # Number of instructions issued per FU type, per thread (Count)
system.cpu.statIssuedInstType_0::SimdSqrt            0      0.00%     77.81% # Number of instructions issued per FU type, per thread (Count)
system.cpu.statIssuedInstType_0::SimdFloatAdd          315      0.00%     77.81% # Number of instructions issued per FU type, per thread (Count)
system.cpu.statIssuedInstType_0::SimdFloatAlu            0      0.00%     77.81% # Number of instructions issued per FU type, per thread (Count)
system.cpu.statIssuedInstType_0::SimdFloatCmp            0      0.00%     77.81% # Number of instructions issued per FU type, per thread (Count)
system.cpu.statIssuedInstType_0::SimdFloatCvt    211812881      5.46%     83.27% # Number of instructions issued per FU type, per thread (Count)
system.cpu.statIssuedInstType_0::SimdFloatDiv       100283      0.00%     83.27% # Number of instructions issued per FU type, per thread (Count)
system.cpu.statIssuedInstType_0::SimdFloatMisc            0      0.00%     83.27% # Number of instructions issued per FU type, per thread (Count)
system.cpu.statIssuedInstType_0::SimdFloatMult            8      0.00%     83.27% # Number of instructions issued per FU type, per thread (Count)
system.cpu.statIssuedInstType_0::SimdFloatMultAcc            0      0.00%     83.27% # Number of instructions issued per FU type, per thread (Count)
system.cpu.statIssuedInstType_0::SimdFloatMatMultAcc            0      0.00%     83.27% # Number of instructions issued per FU type, per thread (Count)
system.cpu.statIssuedInstType_0::SimdFloatSqrt            0      0.00%     83.27% # Number of instructions issued per FU type, per thread (Count)
system.cpu.statIssuedInstType_0::SimdReduceAdd            0      0.00%     83.27% # Number of instructions issued per FU type, per thread (Count)
system.cpu.statIssuedInstType_0::SimdReduceAlu            0      0.00%     83.27% # Number of instructions issued per FU type, per thread (Count)
system.cpu.statIssuedInstType_0::SimdReduceCmp            0      0.00%     83.27% # Number of instructions issued per FU type, per thread (Count)
system.cpu.statIssuedInstType_0::SimdFloatReduceAdd            0      0.00%     83.27% # Number of instructions issued per FU type, per thread (Count)
system.cpu.statIssuedInstType_0::SimdFloatReduceCmp            0      0.00%     83.27% # Number of instructions issued per FU type, per thread (Count)
system.cpu.statIssuedInstType_0::SimdAes            0      0.00%     83.27% # Number of instructions issued per FU type, per thread (Count)
system.cpu.statIssuedInstType_0::SimdAesMix            0      0.00%     83.27% # Number of instructions issued per FU type, per thread (Count)
system.cpu.statIssuedInstType_0::SimdSha1Hash            0      0.00%     83.27% # Number of instructions issued per FU type, per thread (Count)
system.cpu.statIssuedInstType_0::SimdSha1Hash2            0      0.00%     83.27% # Number of instructions issued per FU type, per thread (Count)
system.cpu.statIssuedInstType_0::SimdSha256Hash            0      0.00%     83.27% # Number of instructions issued per FU type, per thread (Count)
system.cpu.statIssuedInstType_0::SimdSha256Hash2            0      0.00%     83.27% # Number of instructions issued per FU type, per thread (Count)
system.cpu.statIssuedInstType_0::SimdShaSigma2            0      0.00%     83.27% # Number of instructions issued per FU type, per thread (Count)
system.cpu.statIssuedInstType_0::SimdShaSigma3            0      0.00%     83.27% # Number of instructions issued per FU type, per thread (Count)
system.cpu.statIssuedInstType_0::SimdPredAlu            0      0.00%     83.27% # Number of instructions issued per FU type, per thread (Count)
system.cpu.statIssuedInstType_0::Matrix             0      0.00%     83.27% # Number of instructions issued per FU type, per thread (Count)
system.cpu.statIssuedInstType_0::MatrixMov            0      0.00%     83.27% # Number of instructions issued per FU type, per thread (Count)
system.cpu.statIssuedInstType_0::MatrixOP            0      0.00%     83.27% # Number of instructions issued per FU type, per thread (Count)
system.cpu.statIssuedInstType_0::MemRead    122197819      3.15%     86.42% # Number of instructions issued per FU type, per thread (Count)
system.cpu.statIssuedInstType_0::MemWrite     56977691      1.47%     87.89% # Number of instructions issued per FU type, per thread (Count)
system.cpu.statIssuedInstType_0::FloatMemRead    338982921      8.73%     96.62% # Number of instructions issued per FU type, per thread (Count)
system.cpu.statIssuedInstType_0::FloatMemWrite    131182991      3.38%    100.00% # Number of instructions issued per FU type, per thread (Count)
system.cpu.statIssuedInstType_0::IprAccess            0      0.00%    100.00% # Number of instructions issued per FU type, per thread (Count)
system.cpu.statIssuedInstType_0::InstPrefetch            0      0.00%    100.00% # Number of instructions issued per FU type, per thread (Count)
system.cpu.statIssuedInstType_0::SimdUnitStrideLoad            0      0.00%    100.00% # Number of instructions issued per FU type, per thread (Count)
system.cpu.statIssuedInstType_0::SimdUnitStrideStore            0      0.00%    100.00% # Number of instructions issued per FU type, per thread (Count)
system.cpu.statIssuedInstType_0::SimdUnitStrideMaskLoad            0      0.00%    100.00% # Number of instructions issued per FU type, per thread (Count)
system.cpu.statIssuedInstType_0::SimdUnitStrideMaskStore            0      0.00%    100.00% # Number of instructions issued per FU type, per thread (Count)
system.cpu.statIssuedInstType_0::SimdStridedLoad            0      0.00%    100.00% # Number of instructions issued per FU type, per thread (Count)
system.cpu.statIssuedInstType_0::SimdStridedStore            0      0.00%    100.00% # Number of instructions issued per FU type, per thread (Count)
system.cpu.statIssuedInstType_0::SimdIndexedLoad            0      0.00%    100.00% # Number of instructions issued per FU type, per thread (Count)
system.cpu.statIssuedInstType_0::SimdIndexedStore            0      0.00%    100.00% # Number of instructions issued per FU type, per thread (Count)
system.cpu.statIssuedInstType_0::SimdWholeRegisterLoad            0      0.00%    100.00% # Number of instructions issued per FU type, per thread (Count)
system.cpu.statIssuedInstType_0::SimdWholeRegisterStore            0      0.00%    100.00% # Number of instructions issued per FU type, per thread (Count)
system.cpu.statIssuedInstType_0::SimdUnitStrideFaultOnlyFirstLoad            0      0.00%    100.00% # Number of instructions issued per FU type, per thread (Count)
system.cpu.statIssuedInstType_0::SimdUnitStrideSegmentedLoad            0      0.00%    100.00% # Number of instructions issued per FU type, per thread (Count)
system.cpu.statIssuedInstType_0::SimdUnitStrideSegmentedStore            0      0.00%    100.00% # Number of instructions issued per FU type, per thread (Count)
system.cpu.statIssuedInstType_0::SimdExt            0      0.00%    100.00% # Number of instructions issued per FU type, per thread (Count)
system.cpu.statIssuedInstType_0::SimdFloatExt            0      0.00%    100.00% # Number of instructions issued per FU type, per thread (Count)
system.cpu.statIssuedInstType_0::SimdConfig            0      0.00%    100.00% # Number of instructions issued per FU type, per thread (Count)
system.cpu.statIssuedInstType_0::total     3881799732                       # Number of instructions issued per FU type, per thread (Count)
system.cpu.issueRate                         1.813509                       # Inst issue rate ((Count/Cycle))
system.cpu.fuBusy                            17617558                       # FU busy when requested (Count)
system.cpu.fuBusyRate                        0.004539                       # FU busy rate (busy events/executed inst) ((Count/Count))
system.cpu.intInstQueueReads               7943410907                       # Number of integer instruction queue reads (Count)
system.cpu.intInstQueueWrites              3945295087                       # Number of integer instruction queue writes (Count)
system.cpu.intInstQueueWakeupAccesses      2785473755                       # Number of integer instruction queue wakeup accesses (Count)
system.cpu.fpInstQueueReads                1983466888                       # Number of floating instruction queue reads (Count)
system.cpu.fpInstQueueWrites               1638273441                       # Number of floating instruction queue writes (Count)
system.cpu.fpInstQueueWakeupAccesses        870484566                       # Number of floating instruction queue wakeup accesses (Count)
system.cpu.vecInstQueueReads                        0                       # Number of vector instruction queue reads (Count)
system.cpu.vecInstQueueWrites                       0                       # Number of vector instruction queue writes (Count)
system.cpu.vecInstQueueWakeupAccesses               0                       # Number of vector instruction queue wakeup accesses (Count)
system.cpu.intAluAccesses                  2874553435                       # Number of integer alu accesses (Count)
system.cpu.fpAluAccesses                    992161295                       # Number of floating point alu accesses (Count)
system.cpu.vecAluAccesses                           0                       # Number of vector alu accesses (Count)
system.cpu.numSquashedInsts                 179565148                       # Number of squashed instructions skipped in execute (Count)
system.cpu.numSwp                                   0                       # Number of swp insts executed (Count)
system.cpu.timesIdled                          206778                       # Number of times that the entire CPU went into an idle state and unscheduled itself (Count)
system.cpu.idleCycles                         5911049                       # Total number of cycles that the CPU has spent unscheduled due to idling (Cycle)
system.cpu.MemDepUnit__0.insertedLoads      503201743                       # Number of loads inserted to the mem dependence unit. (Count)
system.cpu.MemDepUnit__0.insertedStores     202829993                       # Number of stores inserted to the mem dependence unit. (Count)
system.cpu.MemDepUnit__0.conflictingLoads     56168287                       # Number of conflicting loads. (Count)
system.cpu.MemDepUnit__0.conflictingStores     20517965                       # Number of conflicting stores. (Count)
system.cpu.MemDepUnit__1.insertedLoads              0                       # Number of loads inserted to the mem dependence unit. (Count)
system.cpu.MemDepUnit__1.insertedStores             0                       # Number of stores inserted to the mem dependence unit. (Count)
system.cpu.MemDepUnit__1.conflictingLoads            0                       # Number of conflicting loads. (Count)
system.cpu.MemDepUnit__1.conflictingStores            0                       # Number of conflicting stores. (Count)
system.cpu.MemDepUnit__2.insertedLoads              0                       # Number of loads inserted to the mem dependence unit. (Count)
system.cpu.MemDepUnit__2.insertedStores             0                       # Number of stores inserted to the mem dependence unit. (Count)
system.cpu.MemDepUnit__2.conflictingLoads            0                       # Number of conflicting loads. (Count)
system.cpu.MemDepUnit__2.conflictingStores            0                       # Number of conflicting stores. (Count)
system.cpu.MemDepUnit__3.insertedLoads              0                       # Number of loads inserted to the mem dependence unit. (Count)
system.cpu.MemDepUnit__3.insertedStores             0                       # Number of stores inserted to the mem dependence unit. (Count)
system.cpu.MemDepUnit__3.conflictingLoads            0                       # Number of conflicting loads. (Count)
system.cpu.MemDepUnit__3.conflictingStores            0                       # Number of conflicting stores. (Count)
system.cpu.branchPred.lookups_0::NoBranch         7955      0.00%      0.00% # Number of BP lookups (Count)
system.cpu.branchPred.lookups_0::Return       4194437      0.63%      0.63% # Number of BP lookups (Count)
system.cpu.branchPred.lookups_0::CallDirect      3580603      0.54%      1.16% # Number of BP lookups (Count)
system.cpu.branchPred.lookups_0::CallIndirect         4336      0.00%      1.16% # Number of BP lookups (Count)
system.cpu.branchPred.lookups_0::DirectCond    613247639     91.74%     92.90% # Number of BP lookups (Count)
system.cpu.branchPred.lookups_0::DirectUncond     45693279      6.84%     99.74% # Number of BP lookups (Count)
system.cpu.branchPred.lookups_0::IndirectCond            0      0.00%     99.74% # Number of BP lookups (Count)
system.cpu.branchPred.lookups_0::IndirectUncond      1750150      0.26%    100.00% # Number of BP lookups (Count)
system.cpu.branchPred.lookups_0::total      668478399                       # Number of BP lookups (Count)
system.cpu.branchPred.squashes_0::NoBranch         7641      0.00%      0.00% # Number of branches that got squashed (completely removed) as an earlier branch was mispredicted. (Count)
system.cpu.branchPred.squashes_0::Return      1018223      0.27%      0.27% # Number of branches that got squashed (completely removed) as an earlier branch was mispredicted. (Count)
system.cpu.branchPred.squashes_0::CallDirect       407985      0.11%      0.37% # Number of branches that got squashed (completely removed) as an earlier branch was mispredicted. (Count)
system.cpu.branchPred.squashes_0::CallIndirect          735      0.00%      0.37% # Number of branches that got squashed (completely removed) as an earlier branch was mispredicted. (Count)
system.cpu.branchPred.squashes_0::DirectCond    351714587     91.81%     92.19% # Number of branches that got squashed (completely removed) as an earlier branch was mispredicted. (Count)
system.cpu.branchPred.squashes_0::DirectUncond     29732801      7.76%     99.95% # Number of branches that got squashed (completely removed) as an earlier branch was mispredicted. (Count)
system.cpu.branchPred.squashes_0::IndirectCond            0      0.00%     99.95% # Number of branches that got squashed (completely removed) as an earlier branch was mispredicted. (Count)
system.cpu.branchPred.squashes_0::IndirectUncond       196292      0.05%    100.00% # Number of branches that got squashed (completely removed) as an earlier branch was mispredicted. (Count)
system.cpu.branchPred.squashes_0::total     383078264                       # Number of branches that got squashed (completely removed) as an earlier branch was mispredicted. (Count)
system.cpu.branchPred.corrected_0::NoBranch          452      0.00%      0.00% # Number of branches that got corrected but not yet commited. Branches get corrected by decode or after execute. Also a branch misprediction can be detected out-of-order. Therefore, a corrected branch might not end up beeing committed in case an even earlier branch was mispredicted (Count)
system.cpu.branchPred.corrected_0::Return         1080      0.00%      0.00% # Number of branches that got corrected but not yet commited. Branches get corrected by decode or after execute. Also a branch misprediction can be detected out-of-order. Therefore, a corrected branch might not end up beeing committed in case an even earlier branch was mispredicted (Count)
system.cpu.branchPred.corrected_0::CallDirect         4823      0.01%      0.01% # Number of branches that got corrected but not yet commited. Branches get corrected by decode or after execute. Also a branch misprediction can be detected out-of-order. Therefore, a corrected branch might not end up beeing committed in case an even earlier branch was mispredicted (Count)
system.cpu.branchPred.corrected_0::CallIndirect          728      0.00%      0.02% # Number of branches that got corrected but not yet commited. Branches get corrected by decode or after execute. Also a branch misprediction can be detected out-of-order. Therefore, a corrected branch might not end up beeing committed in case an even earlier branch was mispredicted (Count)
system.cpu.branchPred.corrected_0::DirectCond     46124147     99.86%     99.87% # Number of branches that got corrected but not yet commited. Branches get corrected by decode or after execute. Also a branch misprediction can be detected out-of-order. Therefore, a corrected branch might not end up beeing committed in case an even earlier branch was mispredicted (Count)
system.cpu.branchPred.corrected_0::DirectUncond         3579      0.01%     99.88% # Number of branches that got corrected but not yet commited. Branches get corrected by decode or after execute. Also a branch misprediction can be detected out-of-order. Therefore, a corrected branch might not end up beeing committed in case an even earlier branch was mispredicted (Count)
system.cpu.branchPred.corrected_0::IndirectCond            0      0.00%     99.88% # Number of branches that got corrected but not yet commited. Branches get corrected by decode or after execute. Also a branch misprediction can be detected out-of-order. Therefore, a corrected branch might not end up beeing committed in case an even earlier branch was mispredicted (Count)
system.cpu.branchPred.corrected_0::IndirectUncond        55747      0.12%    100.00% # Number of branches that got corrected but not yet commited. Branches get corrected by decode or after execute. Also a branch misprediction can be detected out-of-order. Therefore, a corrected branch might not end up beeing committed in case an even earlier branch was mispredicted (Count)
system.cpu.branchPred.corrected_0::total     46190556                       # Number of branches that got corrected but not yet commited. Branches get corrected by decode or after execute. Also a branch misprediction can be detected out-of-order. Therefore, a corrected branch might not end up beeing committed in case an even earlier branch was mispredicted (Count)
system.cpu.branchPred.earlyResteers_0::NoBranch            0                       # Number of branches that got redirected after decode. (Count)
system.cpu.branchPred.earlyResteers_0::Return            0                       # Number of branches that got redirected after decode. (Count)
system.cpu.branchPred.earlyResteers_0::CallDirect            0                       # Number of branches that got redirected after decode. (Count)
system.cpu.branchPred.earlyResteers_0::CallIndirect            0                       # Number of branches that got redirected after decode. (Count)
system.cpu.branchPred.earlyResteers_0::DirectCond            0                       # Number of branches that got redirected after decode. (Count)
system.cpu.branchPred.earlyResteers_0::DirectUncond            0                       # Number of branches that got redirected after decode. (Count)
system.cpu.branchPred.earlyResteers_0::IndirectCond            0                       # Number of branches that got redirected after decode. (Count)
system.cpu.branchPred.earlyResteers_0::IndirectUncond            0                       # Number of branches that got redirected after decode. (Count)
system.cpu.branchPred.earlyResteers_0::total            0                       # Number of branches that got redirected after decode. (Count)
system.cpu.branchPred.committed_0::NoBranch          314      0.00%      0.00% # Number of branches finally committed  (Count)
system.cpu.branchPred.committed_0::Return      3176213      1.11%      1.11% # Number of branches finally committed  (Count)
system.cpu.branchPred.committed_0::CallDirect      3172617      1.11%      2.22% # Number of branches finally committed  (Count)
system.cpu.branchPred.committed_0::CallIndirect         3601      0.00%      2.23% # Number of branches finally committed  (Count)
system.cpu.branchPred.committed_0::DirectCond    261533052     91.64%     93.86% # Number of branches finally committed  (Count)
system.cpu.branchPred.committed_0::DirectUncond     15960478      5.59%     99.46% # Number of branches finally committed  (Count)
system.cpu.branchPred.committed_0::IndirectCond            0      0.00%     99.46% # Number of branches finally committed  (Count)
system.cpu.branchPred.committed_0::IndirectUncond      1553858      0.54%    100.00% # Number of branches finally committed  (Count)
system.cpu.branchPred.committed_0::total    285400133                       # Number of branches finally committed  (Count)
system.cpu.branchPred.mispredicted_0::NoBranch          314      0.00%      0.00% # Number of committed branches that were mispredicted. (Count)
system.cpu.branchPred.mispredicted_0::Return          974      0.00%      0.00% # Number of committed branches that were mispredicted. (Count)
system.cpu.branchPred.mispredicted_0::CallDirect         3413      0.01%      0.01% # Number of committed branches that were mispredicted. (Count)
system.cpu.branchPred.mispredicted_0::CallIndirect          703      0.00%      0.01% # Number of committed branches that were mispredicted. (Count)
system.cpu.branchPred.mispredicted_0::DirectCond     45789399     99.87%     99.88% # Number of committed branches that were mispredicted. (Count)
system.cpu.branchPred.mispredicted_0::DirectUncond         1718      0.00%     99.88% # Number of committed branches that were mispredicted. (Count)
system.cpu.branchPred.mispredicted_0::IndirectCond            0      0.00%     99.88% # Number of committed branches that were mispredicted. (Count)
system.cpu.branchPred.mispredicted_0::IndirectUncond        54220      0.12%    100.00% # Number of committed branches that were mispredicted. (Count)
system.cpu.branchPred.mispredicted_0::total     45850741                       # Number of committed branches that were mispredicted. (Count)
system.cpu.branchPred.targetProvider_0::NoTarget    166405067     24.89%     24.89% # The component providing the target for taken branches (Count)
system.cpu.branchPred.targetProvider_0::BTB    496207562     74.23%     99.12% # The component providing the target for taken branches (Count)
system.cpu.branchPred.targetProvider_0::RAS      4194437      0.63%     99.75% # The component providing the target for taken branches (Count)
system.cpu.branchPred.targetProvider_0::Indirect      1671333      0.25%    100.00% # The component providing the target for taken branches (Count)
system.cpu.branchPred.targetProvider_0::total    668478399                       # The component providing the target for taken branches (Count)
system.cpu.branchPred.targetWrong_0::NoBranch     18681227     40.45%     40.45% # Number of branches where the target was incorrect or not available at prediction time. (Count)
system.cpu.branchPred.targetWrong_0::Return     27458634     59.45%     99.90% # Number of branches where the target was incorrect or not available at prediction time. (Count)
system.cpu.branchPred.targetWrong_0::CallDirect         1080      0.00%     99.90% # Number of branches where the target was incorrect or not available at prediction time. (Count)
system.cpu.branchPred.targetWrong_0::CallIndirect        44959      0.10%    100.00% # Number of branches where the target was incorrect or not available at prediction time. (Count)
system.cpu.branchPred.targetWrong_0::DirectCond            0      0.00%    100.00% # Number of branches where the target was incorrect or not available at prediction time. (Count)
system.cpu.branchPred.targetWrong_0::DirectUncond            0      0.00%    100.00% # Number of branches where the target was incorrect or not available at prediction time. (Count)
system.cpu.branchPred.targetWrong_0::IndirectCond            0      0.00%    100.00% # Number of branches where the target was incorrect or not available at prediction time. (Count)
system.cpu.branchPred.targetWrong_0::IndirectUncond            0      0.00%    100.00% # Number of branches where the target was incorrect or not available at prediction time. (Count)
system.cpu.branchPred.targetWrong_0::total     46185900                       # Number of branches where the target was incorrect or not available at prediction time. (Count)
system.cpu.branchPred.condPredicted         613255594                       # Number of conditional branches predicted (Count)
system.cpu.branchPred.condPredictedTaken    447304015                       # Number of conditional branches predicted as taken (Count)
system.cpu.branchPred.condIncorrect          46190556                       # Number of conditional branches incorrect (Count)
system.cpu.branchPred.predTakenBTBMiss          10266                       # Number of branches predicted taken but missed in BTB (Count)
system.cpu.branchPred.NotTakenMispredicted     18730049                       # Number branches predicted 'not taken' but turned out to be taken (Count)
system.cpu.branchPred.TakenMispredicted      27460507                       # Number branches predicted taken but are actually not taken (Count)
system.cpu.branchPred.BTBLookups            668478399                       # Number of BTB lookups (Count)
system.cpu.branchPred.BTBUpdates             18672042                       # Number of BTB updates (Count)
system.cpu.branchPred.BTBHits               642260710                       # Number of BTB hits (Count)
system.cpu.branchPred.BTBHitRatio            0.960780                       # BTB Hit Ratio (Ratio)
system.cpu.branchPred.BTBMispredicted           12123                       # Number BTB mispredictions. No target found or target wrong (Count)
system.cpu.branchPred.indirectLookups         1754486                       # Number of indirect predictor lookups. (Count)
system.cpu.branchPred.indirectHits            1671333                       # Number of indirect target hits. (Count)
system.cpu.branchPred.indirectMisses            83153                       # Number of indirect misses. (Count)
system.cpu.branchPred.indirectMispredicted            0                       # Number of mispredicted indirect branches. (Count)
system.cpu.branchPred.btb.lookups::NoBranch         7955      0.00%      0.00% # Number of BTB lookups (Count)
system.cpu.branchPred.btb.lookups::Return      4194437      0.63%      0.63% # Number of BTB lookups (Count)
system.cpu.branchPred.btb.lookups::CallDirect      3580603      0.54%      1.16% # Number of BTB lookups (Count)
system.cpu.branchPred.btb.lookups::CallIndirect         4336      0.00%      1.16% # Number of BTB lookups (Count)
system.cpu.branchPred.btb.lookups::DirectCond    613247639     91.74%     92.90% # Number of BTB lookups (Count)
system.cpu.branchPred.btb.lookups::DirectUncond     45693279      6.84%     99.74% # Number of BTB lookups (Count)
system.cpu.branchPred.btb.lookups::IndirectCond            0      0.00%     99.74% # Number of BTB lookups (Count)
system.cpu.branchPred.btb.lookups::IndirectUncond      1750150      0.26%    100.00% # Number of BTB lookups (Count)
system.cpu.branchPred.btb.lookups::total    668478399                       # Number of BTB lookups (Count)
system.cpu.branchPred.btb.misses::NoBranch          389      0.00%      0.00% # Number of BTB misses (Count)
system.cpu.branchPred.btb.misses::Return      4194432     16.00%     16.00% # Number of BTB misses (Count)
system.cpu.branchPred.btb.misses::CallDirect         5602      0.02%     16.02% # Number of BTB misses (Count)
system.cpu.branchPred.btb.misses::CallIndirect         4336      0.02%     16.04% # Number of BTB misses (Count)
system.cpu.branchPred.btb.misses::DirectCond     20258914     77.27%     93.31% # Number of BTB misses (Count)
system.cpu.branchPred.btb.misses::DirectUncond         3866      0.01%     93.32% # Number of BTB misses (Count)
system.cpu.branchPred.btb.misses::IndirectCond            0      0.00%     93.32% # Number of BTB misses (Count)
system.cpu.branchPred.btb.misses::IndirectUncond      1750150      6.68%    100.00% # Number of BTB misses (Count)
system.cpu.branchPred.btb.misses::total      26217689                       # Number of BTB misses (Count)
system.cpu.branchPred.btb.updates::NoBranch            0      0.00%      0.00% # Number of BTB updates (Count)
system.cpu.branchPred.btb.updates::Return            0      0.00%      0.00% # Number of BTB updates (Count)
system.cpu.branchPred.btb.updates::CallDirect         4823      0.03%      0.03% # Number of BTB updates (Count)
system.cpu.branchPred.btb.updates::CallIndirect            0      0.00%      0.03% # Number of BTB updates (Count)
system.cpu.branchPred.btb.updates::DirectCond     18663640     99.96%     99.98% # Number of BTB updates (Count)
system.cpu.branchPred.btb.updates::DirectUncond         3579      0.02%    100.00% # Number of BTB updates (Count)
system.cpu.branchPred.btb.updates::IndirectCond            0      0.00%    100.00% # Number of BTB updates (Count)
system.cpu.branchPred.btb.updates::IndirectUncond            0      0.00%    100.00% # Number of BTB updates (Count)
system.cpu.branchPred.btb.updates::total     18672042                       # Number of BTB updates (Count)
system.cpu.branchPred.btb.mispredict::NoBranch            0      0.00%      0.00% # Number of BTB mispredictions. No target found or target wrong. (Count)
system.cpu.branchPred.btb.mispredict::Return            0      0.00%      0.00% # Number of BTB mispredictions. No target found or target wrong. (Count)
system.cpu.branchPred.btb.mispredict::CallDirect         4823      0.03%      0.03% # Number of BTB mispredictions. No target found or target wrong. (Count)
system.cpu.branchPred.btb.mispredict::CallIndirect            0      0.00%      0.03% # Number of BTB mispredictions. No target found or target wrong. (Count)
system.cpu.branchPred.btb.mispredict::DirectCond     18663640     99.96%     99.98% # Number of BTB mispredictions. No target found or target wrong. (Count)
system.cpu.branchPred.btb.mispredict::DirectUncond         3579      0.02%    100.00% # Number of BTB mispredictions. No target found or target wrong. (Count)
system.cpu.branchPred.btb.mispredict::IndirectCond            0      0.00%    100.00% # Number of BTB mispredictions. No target found or target wrong. (Count)
system.cpu.branchPred.btb.mispredict::IndirectUncond            0      0.00%    100.00% # Number of BTB mispredictions. No target found or target wrong. (Count)
system.cpu.branchPred.btb.mispredict::total     18672042                       # Number of BTB mispredictions. No target found or target wrong. (Count)
system.cpu.branchPred.btb.power_state.pwrStateResidencyTicks::UNDEFINED 2140491246000                       # Cumulative time (in ticks) in various power states (Tick)
system.cpu.branchPred.indirectBranchPred.lookups      1754486                       # Number of lookups (Count)
system.cpu.branchPred.indirectBranchPred.hits      1671333                       # Number of hits of a tag (Count)
system.cpu.branchPred.indirectBranchPred.misses        83153                       # Number of misses (Count)
system.cpu.branchPred.indirectBranchPred.targetRecords        56475                       # Number of targets that where recorded/installed in the cache (Count)
system.cpu.branchPred.indirectBranchPred.indirectRecords      1810961                       # Number of indirect branches/calls recorded in the indirect hist (Count)
system.cpu.branchPred.indirectBranchPred.speculativeOverflows            1                       # Number of times more than the allowed capacity for speculative branches/calls where in flight and destroy the path history (Count)
system.cpu.branchPred.ras.pushes              4603162                       # Number of times a PC was pushed onto the RAS (Count)
system.cpu.branchPred.ras.pops                4603157                       # Number of times a PC was poped from the RAS (Count)
system.cpu.branchPred.ras.squashes            1426943                       # Number of times the stack operation was squashed due to wrong speculation. (Count)
system.cpu.branchPred.ras.used                3176213                       # Number of times the RAS is the provider (Count)
system.cpu.branchPred.ras.correct             3175239                       # Number of times the RAS is the provider and the prediction is correct (Count)
system.cpu.branchPred.ras.incorrect               974                       # Number of times the RAS is the provider and the prediction is wrong (Count)
system.cpu.commit.commitSquashedInsts      1401469460                       # The number of squashed insts skipped by commit (Count)
system.cpu.commit.commitNonSpecStalls          319103                       # The number of times commit has been forced to stall to communicate backwards (Count)
system.cpu.commit.branchMispredicts          46182050                       # The number of times a branch was mispredicted (Count)
system.cpu.commit.numCommittedDist::samples   1940908223                       # Number of insts commited each cycle (Count)
system.cpu.commit.numCommittedDist::mean     1.432553                       # Number of insts commited each cycle (Count)
system.cpu.commit.numCommittedDist::stdev     2.378653                       # Number of insts commited each cycle (Count)
system.cpu.commit.numCommittedDist::underflows            0      0.00%      0.00% # Number of insts commited each cycle (Count)
system.cpu.commit.numCommittedDist::0      1137350808     58.60%     58.60% # Number of insts commited each cycle (Count)
system.cpu.commit.numCommittedDist::1       306394594     15.79%     74.39% # Number of insts commited each cycle (Count)
system.cpu.commit.numCommittedDist::2        41546287      2.14%     76.53% # Number of insts commited each cycle (Count)
system.cpu.commit.numCommittedDist::3       155167312      7.99%     84.52% # Number of insts commited each cycle (Count)
system.cpu.commit.numCommittedDist::4        61873533      3.19%     87.71% # Number of insts commited each cycle (Count)
system.cpu.commit.numCommittedDist::5        25768787      1.33%     89.04% # Number of insts commited each cycle (Count)
system.cpu.commit.numCommittedDist::6        70899624      3.65%     92.69% # Number of insts commited each cycle (Count)
system.cpu.commit.numCommittedDist::7        11529937      0.59%     93.28% # Number of insts commited each cycle (Count)
system.cpu.commit.numCommittedDist::8       130377341      6.72%    100.00% # Number of insts commited each cycle (Count)
system.cpu.commit.numCommittedDist::overflows            0      0.00%    100.00% # Number of insts commited each cycle (Count)
system.cpu.commit.numCommittedDist::min_value            0                       # Number of insts commited each cycle (Count)
system.cpu.commit.numCommittedDist::max_value            8                       # Number of insts commited each cycle (Count)
system.cpu.commit.numCommittedDist::total   1940908223                       # Number of insts commited each cycle (Count)
system.cpu.commit.amos                              0                       # Number of atomic instructions committed (Count)
system.cpu.commit.membars                      211806                       # Number of memory barriers committed (Count)
system.cpu.commit.functionCalls               3176218                       # Number of function calls committed. (Count)
system.cpu.commit.committedInstType_0::No_OpClass     20032831      0.72%      0.72% # Class of committed instruction (Count)
system.cpu.commit.committedInstType_0::IntAlu   1992512234     71.66%     72.38% # Class of committed instruction (Count)
system.cpu.commit.committedInstType_0::IntMult       825700      0.03%     72.41% # Class of committed instruction (Count)
system.cpu.commit.committedInstType_0::IntDiv        43533      0.00%     72.41% # Class of committed instruction (Count)
system.cpu.commit.committedInstType_0::FloatAdd    133375622      4.80%     77.21% # Class of committed instruction (Count)
system.cpu.commit.committedInstType_0::FloatCmp            0      0.00%     77.21% # Class of committed instruction (Count)
system.cpu.commit.committedInstType_0::FloatCvt         1472      0.00%     77.21% # Class of committed instruction (Count)
system.cpu.commit.committedInstType_0::FloatMult            0      0.00%     77.21% # Class of committed instruction (Count)
system.cpu.commit.committedInstType_0::FloatMultAcc            0      0.00%     77.21% # Class of committed instruction (Count)
system.cpu.commit.committedInstType_0::FloatDiv            0      0.00%     77.21% # Class of committed instruction (Count)
system.cpu.commit.committedInstType_0::FloatMisc            0      0.00%     77.21% # Class of committed instruction (Count)
system.cpu.commit.committedInstType_0::FloatSqrt            0      0.00%     77.21% # Class of committed instruction (Count)
system.cpu.commit.committedInstType_0::SimdAdd         6894      0.00%     77.21% # Class of committed instruction (Count)
system.cpu.commit.committedInstType_0::SimdAddAcc            0      0.00%     77.21% # Class of committed instruction (Count)
system.cpu.commit.committedInstType_0::SimdAlu      1000147      0.04%     77.25% # Class of committed instruction (Count)
system.cpu.commit.committedInstType_0::SimdCmp            6      0.00%     77.25% # Class of committed instruction (Count)
system.cpu.commit.committedInstType_0::SimdCvt        61470      0.00%     77.25% # Class of committed instruction (Count)
system.cpu.commit.committedInstType_0::SimdMisc      8894242      0.32%     77.57% # Class of committed instruction (Count)
system.cpu.commit.committedInstType_0::SimdMult            0      0.00%     77.57% # Class of committed instruction (Count)
system.cpu.commit.committedInstType_0::SimdMultAcc            0      0.00%     77.57% # Class of committed instruction (Count)
system.cpu.commit.committedInstType_0::SimdMatMultAcc            0      0.00%     77.57% # Class of committed instruction (Count)
system.cpu.commit.committedInstType_0::SimdShift         1859      0.00%     77.57% # Class of committed instruction (Count)
system.cpu.commit.committedInstType_0::SimdShiftAcc            0      0.00%     77.57% # Class of committed instruction (Count)
system.cpu.commit.committedInstType_0::SimdDiv            0      0.00%     77.57% # Class of committed instruction (Count)
system.cpu.commit.committedInstType_0::SimdSqrt            0      0.00%     77.57% # Class of committed instruction (Count)
system.cpu.commit.committedInstType_0::SimdFloatAdd          289      0.00%     77.57% # Class of committed instruction (Count)
system.cpu.commit.committedInstType_0::SimdFloatAlu            0      0.00%     77.57% # Class of committed instruction (Count)
system.cpu.commit.committedInstType_0::SimdFloatCmp            0      0.00%     77.57% # Class of committed instruction (Count)
system.cpu.commit.committedInstType_0::SimdFloatCvt    164490210      5.92%     83.48% # Class of committed instruction (Count)
system.cpu.commit.committedInstType_0::SimdFloatDiv       100273      0.00%     83.49% # Class of committed instruction (Count)
system.cpu.commit.committedInstType_0::SimdFloatMisc            0      0.00%     83.49% # Class of committed instruction (Count)
system.cpu.commit.committedInstType_0::SimdFloatMult            8      0.00%     83.49% # Class of committed instruction (Count)
system.cpu.commit.committedInstType_0::SimdFloatMultAcc            0      0.00%     83.49% # Class of committed instruction (Count)
system.cpu.commit.committedInstType_0::SimdFloatMatMultAcc            0      0.00%     83.49% # Class of committed instruction (Count)
system.cpu.commit.committedInstType_0::SimdFloatSqrt            0      0.00%     83.49% # Class of committed instruction (Count)
system.cpu.commit.committedInstType_0::SimdReduceAdd            0      0.00%     83.49% # Class of committed instruction (Count)
system.cpu.commit.committedInstType_0::SimdReduceAlu            0      0.00%     83.49% # Class of committed instruction (Count)
system.cpu.commit.committedInstType_0::SimdReduceCmp            0      0.00%     83.49% # Class of committed instruction (Count)
system.cpu.commit.committedInstType_0::SimdFloatReduceAdd            0      0.00%     83.49% # Class of committed instruction (Count)
system.cpu.commit.committedInstType_0::SimdFloatReduceCmp            0      0.00%     83.49% # Class of committed instruction (Count)
system.cpu.commit.committedInstType_0::SimdAes            0      0.00%     83.49% # Class of committed instruction (Count)
system.cpu.commit.committedInstType_0::SimdAesMix            0      0.00%     83.49% # Class of committed instruction (Count)
system.cpu.commit.committedInstType_0::SimdSha1Hash            0      0.00%     83.49% # Class of committed instruction (Count)
system.cpu.commit.committedInstType_0::SimdSha1Hash2            0      0.00%     83.49% # Class of committed instruction (Count)
system.cpu.commit.committedInstType_0::SimdSha256Hash            0      0.00%     83.49% # Class of committed instruction (Count)
system.cpu.commit.committedInstType_0::SimdSha256Hash2            0      0.00%     83.49% # Class of committed instruction (Count)
system.cpu.commit.committedInstType_0::SimdShaSigma2            0      0.00%     83.49% # Class of committed instruction (Count)
system.cpu.commit.committedInstType_0::SimdShaSigma3            0      0.00%     83.49% # Class of committed instruction (Count)
system.cpu.commit.committedInstType_0::SimdPredAlu            0      0.00%     83.49% # Class of committed instruction (Count)
system.cpu.commit.committedInstType_0::Matrix            0      0.00%     83.49% # Class of committed instruction (Count)
system.cpu.commit.committedInstType_0::MatrixMov            0      0.00%     83.49% # Class of committed instruction (Count)
system.cpu.commit.committedInstType_0::MatrixOP            0      0.00%     83.49% # Class of committed instruction (Count)
system.cpu.commit.committedInstType_0::MemRead    115077895      4.14%     87.63% # Class of committed instruction (Count)
system.cpu.commit.committedInstType_0::MemWrite     55261813      1.99%     89.61% # Class of committed instruction (Count)
system.cpu.commit.committedInstType_0::FloatMemRead    212896701      7.66%     97.27% # Class of committed instruction (Count)
system.cpu.commit.committedInstType_0::FloatMemWrite     75870003      2.73%    100.00% # Class of committed instruction (Count)
system.cpu.commit.committedInstType_0::IprAccess            0      0.00%    100.00% # Class of committed instruction (Count)
system.cpu.commit.committedInstType_0::InstPrefetch            0      0.00%    100.00% # Class of committed instruction (Count)
system.cpu.commit.committedInstType_0::SimdUnitStrideLoad            0      0.00%    100.00% # Class of committed instruction (Count)
system.cpu.commit.committedInstType_0::SimdUnitStrideStore            0      0.00%    100.00% # Class of committed instruction (Count)
system.cpu.commit.committedInstType_0::SimdUnitStrideMaskLoad            0      0.00%    100.00% # Class of committed instruction (Count)
system.cpu.commit.committedInstType_0::SimdUnitStrideMaskStore            0      0.00%    100.00% # Class of committed instruction (Count)
system.cpu.commit.committedInstType_0::SimdStridedLoad            0      0.00%    100.00% # Class of committed instruction (Count)
system.cpu.commit.committedInstType_0::SimdStridedStore            0      0.00%    100.00% # Class of committed instruction (Count)
system.cpu.commit.committedInstType_0::SimdIndexedLoad            0      0.00%    100.00% # Class of committed instruction (Count)
system.cpu.commit.committedInstType_0::SimdIndexedStore            0      0.00%    100.00% # Class of committed instruction (Count)
system.cpu.commit.committedInstType_0::SimdWholeRegisterLoad            0      0.00%    100.00% # Class of committed instruction (Count)
system.cpu.commit.committedInstType_0::SimdWholeRegisterStore            0      0.00%    100.00% # Class of committed instruction (Count)
system.cpu.commit.committedInstType_0::SimdUnitStrideFaultOnlyFirstLoad            0      0.00%    100.00% # Class of committed instruction (Count)
system.cpu.commit.committedInstType_0::SimdUnitStrideSegmentedLoad            0      0.00%    100.00% # Class of committed instruction (Count)
system.cpu.commit.committedInstType_0::SimdUnitStrideSegmentedStore            0      0.00%    100.00% # Class of committed instruction (Count)
system.cpu.commit.committedInstType_0::SimdExt            0      0.00%    100.00% # Class of committed instruction (Count)
system.cpu.commit.committedInstType_0::SimdFloatExt            0      0.00%    100.00% # Class of committed instruction (Count)
system.cpu.commit.committedInstType_0::SimdConfig            0      0.00%    100.00% # Class of committed instruction (Count)
system.cpu.commit.committedInstType_0::total   2780453202                       # Class of committed instruction (Count)
system.cpu.commit.commitEligibleSamples     130377341                       # number cycles where commit BW limit reached (Cycle)
system.cpu.commitStats0.numInsts           1583038392                       # Number of instructions committed (thread level) (Count)
system.cpu.commitStats0.numOps             2780453202                       # Number of ops (including micro ops) committed (thread level) (Count)
system.cpu.commitStats0.numInstsNotNOP     1583038392                       # Number of instructions committed excluding NOPs or prefetches (Count)
system.cpu.commitStats0.numOpsNotNOP       2780453202                       # Number of Ops (including micro ops) Simulated (Count)
system.cpu.commitStats0.cpi                  1.352141                       # CPI: cycles per instruction (thread level) ((Cycle/Count))
system.cpu.commitStats0.ipc                  0.739568                       # IPC: instructions per cycle (thread level) ((Count/Cycle))
system.cpu.commitStats0.numMemRefs          459106412                       # Number of memory references committed (Count)
system.cpu.commitStats0.numFpInsts          603885179                       # Number of float instructions (Count)
system.cpu.commitStats0.numIntInsts        2440460488                       # Number of integer instructions (Count)
system.cpu.commitStats0.numLoadInsts        327974596                       # Number of load instructions (Count)
system.cpu.commitStats0.numStoreInsts       131131816                       # Number of store instructions (Count)
system.cpu.commitStats0.numVecInsts                 0                       # Number of vector instructions (Count)
system.cpu.commitStats0.committedInstType::No_OpClass     20032831      0.72%      0.72% # Class of committed instruction. (Count)
system.cpu.commitStats0.committedInstType::IntAlu   1992512234     71.66%     72.38% # Class of committed instruction. (Count)
system.cpu.commitStats0.committedInstType::IntMult       825700      0.03%     72.41% # Class of committed instruction. (Count)
system.cpu.commitStats0.committedInstType::IntDiv        43533      0.00%     72.41% # Class of committed instruction. (Count)
system.cpu.commitStats0.committedInstType::FloatAdd    133375622      4.80%     77.21% # Class of committed instruction. (Count)
system.cpu.commitStats0.committedInstType::FloatCmp            0      0.00%     77.21% # Class of committed instruction. (Count)
system.cpu.commitStats0.committedInstType::FloatCvt         1472      0.00%     77.21% # Class of committed instruction. (Count)
system.cpu.commitStats0.committedInstType::FloatMult            0      0.00%     77.21% # Class of committed instruction. (Count)
system.cpu.commitStats0.committedInstType::FloatMultAcc            0      0.00%     77.21% # Class of committed instruction. (Count)
system.cpu.commitStats0.committedInstType::FloatDiv            0      0.00%     77.21% # Class of committed instruction. (Count)
system.cpu.commitStats0.committedInstType::FloatMisc            0      0.00%     77.21% # Class of committed instruction. (Count)
system.cpu.commitStats0.committedInstType::FloatSqrt            0      0.00%     77.21% # Class of committed instruction. (Count)
system.cpu.commitStats0.committedInstType::SimdAdd         6894      0.00%     77.21% # Class of committed instruction. (Count)
system.cpu.commitStats0.committedInstType::SimdAddAcc            0      0.00%     77.21% # Class of committed instruction. (Count)
system.cpu.commitStats0.committedInstType::SimdAlu      1000147      0.04%     77.25% # Class of committed instruction. (Count)
system.cpu.commitStats0.committedInstType::SimdCmp            6      0.00%     77.25% # Class of committed instruction. (Count)
system.cpu.commitStats0.committedInstType::SimdCvt        61470      0.00%     77.25% # Class of committed instruction. (Count)
system.cpu.commitStats0.committedInstType::SimdMisc      8894242      0.32%     77.57% # Class of committed instruction. (Count)
system.cpu.commitStats0.committedInstType::SimdMult            0      0.00%     77.57% # Class of committed instruction. (Count)
system.cpu.commitStats0.committedInstType::SimdMultAcc            0      0.00%     77.57% # Class of committed instruction. (Count)
system.cpu.commitStats0.committedInstType::SimdMatMultAcc            0      0.00%     77.57% # Class of committed instruction. (Count)
system.cpu.commitStats0.committedInstType::SimdShift         1859      0.00%     77.57% # Class of committed instruction. (Count)
system.cpu.commitStats0.committedInstType::SimdShiftAcc            0      0.00%     77.57% # Class of committed instruction. (Count)
system.cpu.commitStats0.committedInstType::SimdDiv            0      0.00%     77.57% # Class of committed instruction. (Count)
system.cpu.commitStats0.committedInstType::SimdSqrt            0      0.00%     77.57% # Class of committed instruction. (Count)
system.cpu.commitStats0.committedInstType::SimdFloatAdd          289      0.00%     77.57% # Class of committed instruction. (Count)
system.cpu.commitStats0.committedInstType::SimdFloatAlu            0      0.00%     77.57% # Class of committed instruction. (Count)
system.cpu.commitStats0.committedInstType::SimdFloatCmp            0      0.00%     77.57% # Class of committed instruction. (Count)
system.cpu.commitStats0.committedInstType::SimdFloatCvt    164490210      5.92%     83.48% # Class of committed instruction. (Count)
system.cpu.commitStats0.committedInstType::SimdFloatDiv       100273      0.00%     83.49% # Class of committed instruction. (Count)
system.cpu.commitStats0.committedInstType::SimdFloatMisc            0      0.00%     83.49% # Class of committed instruction. (Count)
system.cpu.commitStats0.committedInstType::SimdFloatMult            8      0.00%     83.49% # Class of committed instruction. (Count)
system.cpu.commitStats0.committedInstType::SimdFloatMultAcc            0      0.00%     83.49% # Class of committed instruction. (Count)
system.cpu.commitStats0.committedInstType::SimdFloatMatMultAcc            0      0.00%     83.49% # Class of committed instruction. (Count)
system.cpu.commitStats0.committedInstType::SimdFloatSqrt            0      0.00%     83.49% # Class of committed instruction. (Count)
system.cpu.commitStats0.committedInstType::SimdReduceAdd            0      0.00%     83.49% # Class of committed instruction. (Count)
system.cpu.commitStats0.committedInstType::SimdReduceAlu            0      0.00%     83.49% # Class of committed instruction. (Count)
system.cpu.commitStats0.committedInstType::SimdReduceCmp            0      0.00%     83.49% # Class of committed instruction. (Count)
system.cpu.commitStats0.committedInstType::SimdFloatReduceAdd            0      0.00%     83.49% # Class of committed instruction. (Count)
system.cpu.commitStats0.committedInstType::SimdFloatReduceCmp            0      0.00%     83.49% # Class of committed instruction. (Count)
system.cpu.commitStats0.committedInstType::SimdAes            0      0.00%     83.49% # Class of committed instruction. (Count)
system.cpu.commitStats0.committedInstType::SimdAesMix            0      0.00%     83.49% # Class of committed instruction. (Count)
system.cpu.commitStats0.committedInstType::SimdSha1Hash            0      0.00%     83.49% # Class of committed instruction. (Count)
system.cpu.commitStats0.committedInstType::SimdSha1Hash2            0      0.00%     83.49% # Class of committed instruction. (Count)
system.cpu.commitStats0.committedInstType::SimdSha256Hash            0      0.00%     83.49% # Class of committed instruction. (Count)
system.cpu.commitStats0.committedInstType::SimdSha256Hash2            0      0.00%     83.49% # Class of committed instruction. (Count)
system.cpu.commitStats0.committedInstType::SimdShaSigma2            0      0.00%     83.49% # Class of committed instruction. (Count)
system.cpu.commitStats0.committedInstType::SimdShaSigma3            0      0.00%     83.49% # Class of committed instruction. (Count)
system.cpu.commitStats0.committedInstType::SimdPredAlu            0      0.00%     83.49% # Class of committed instruction. (Count)
system.cpu.commitStats0.committedInstType::Matrix            0      0.00%     83.49% # Class of committed instruction. (Count)
system.cpu.commitStats0.committedInstType::MatrixMov            0      0.00%     83.49% # Class of committed instruction. (Count)
system.cpu.commitStats0.committedInstType::MatrixOP            0      0.00%     83.49% # Class of committed instruction. (Count)
system.cpu.commitStats0.committedInstType::MemRead    115077895      4.14%     87.63% # Class of committed instruction. (Count)
system.cpu.commitStats0.committedInstType::MemWrite     55261813      1.99%     89.61% # Class of committed instruction. (Count)
system.cpu.commitStats0.committedInstType::FloatMemRead    212896701      7.66%     97.27% # Class of committed instruction. (Count)
system.cpu.commitStats0.committedInstType::FloatMemWrite     75870003      2.73%    100.00% # Class of committed instruction. (Count)
system.cpu.commitStats0.committedInstType::IprAccess            0      0.00%    100.00% # Class of committed instruction. (Count)
system.cpu.commitStats0.committedInstType::InstPrefetch            0      0.00%    100.00% # Class of committed instruction. (Count)
system.cpu.commitStats0.committedInstType::SimdUnitStrideLoad            0      0.00%    100.00% # Class of committed instruction. (Count)
system.cpu.commitStats0.committedInstType::SimdUnitStrideStore            0      0.00%    100.00% # Class of committed instruction. (Count)
system.cpu.commitStats0.committedInstType::SimdUnitStrideMaskLoad            0      0.00%    100.00% # Class of committed instruction. (Count)
system.cpu.commitStats0.committedInstType::SimdUnitStrideMaskStore            0      0.00%    100.00% # Class of committed instruction. (Count)
system.cpu.commitStats0.committedInstType::SimdStridedLoad            0      0.00%    100.00% # Class of committed instruction. (Count)
system.cpu.commitStats0.committedInstType::SimdStridedStore            0      0.00%    100.00% # Class of committed instruction. (Count)
system.cpu.commitStats0.committedInstType::SimdIndexedLoad            0      0.00%    100.00% # Class of committed instruction. (Count)
system.cpu.commitStats0.committedInstType::SimdIndexedStore            0      0.00%    100.00% # Class of committed instruction. (Count)
system.cpu.commitStats0.committedInstType::SimdWholeRegisterLoad            0      0.00%    100.00% # Class of committed instruction. (Count)
system.cpu.commitStats0.committedInstType::SimdWholeRegisterStore            0      0.00%    100.00% # Class of committed instruction. (Count)
system.cpu.commitStats0.committedInstType::SimdUnitStrideFaultOnlyFirstLoad            0      0.00%    100.00% # Class of committed instruction. (Count)
system.cpu.commitStats0.committedInstType::SimdUnitStrideSegmentedLoad            0      0.00%    100.00% # Class of committed instruction. (Count)
system.cpu.commitStats0.committedInstType::SimdUnitStrideSegmentedStore            0      0.00%    100.00% # Class of committed instruction. (Count)
system.cpu.commitStats0.committedInstType::SimdExt            0      0.00%    100.00% # Class of committed instruction. (Count)
system.cpu.commitStats0.committedInstType::SimdFloatExt            0      0.00%    100.00% # Class of committed instruction. (Count)
system.cpu.commitStats0.committedInstType::SimdConfig            0      0.00%    100.00% # Class of committed instruction. (Count)
system.cpu.commitStats0.committedInstType::total   2780453202                       # Class of committed instruction. (Count)
system.cpu.commitStats0.committedControl::IsControl    285400133                       # Class of control type instructions committed (Count)
system.cpu.commitStats0.committedControl::IsDirectControl    280666147                       # Class of control type instructions committed (Count)
system.cpu.commitStats0.committedControl::IsIndirectControl      4733672                       # Class of control type instructions committed (Count)
system.cpu.commitStats0.committedControl::IsCondControl    261533052                       # Class of control type instructions committed (Count)
system.cpu.commitStats0.committedControl::IsUncondControl     23866767                       # Class of control type instructions committed (Count)
system.cpu.commitStats0.committedControl::IsCall      3176218                       # Class of control type instructions committed (Count)
system.cpu.commitStats0.committedControl::IsReturn      3176213                       # Class of control type instructions committed (Count)
system.cpu.decode.idleCycles                224670373                       # Number of cycles decode is idle (Cycle)
system.cpu.decode.blockedCycles            1175338540                       # Number of cycles decode is blocked (Cycle)
system.cpu.decode.runCycles                 468802219                       # Number of cycles decode is running (Cycle)
system.cpu.decode.unblockCycles             219506562                       # Number of cycles decode is unblocking (Cycle)
system.cpu.decode.squashCycles               46262504                       # Number of cycles decode is squashing (Cycle)
system.cpu.decode.branchResolved            395542329                       # Number of times decode resolved a branch (Count)
system.cpu.decode.branchMispred                  9242                       # Number of times decode detected a branch misprediction (Count)
system.cpu.decode.decodedInsts             5070918117                       # Number of instructions handled by decode (Count)
system.cpu.decode.squashedInsts                 44905                       # Number of squashed instructions handled by decode (Count)
system.cpu.executeStats0.numInsts          3702234584                       # Number of executed instructions (Count)
system.cpu.executeStats0.numNop                     0                       # Number of nop insts executed (Count)
system.cpu.executeStats0.numBranches        347727927                       # Number of branches executed (Count)
system.cpu.executeStats0.numLoadInsts       430257295                       # Number of load instructions executed (Count)
system.cpu.executeStats0.numStoreInsts      177616108                       # Number of stores executed (Count)
system.cpu.executeStats0.instRate            1.729619                       # Inst execution rate ((Count/Cycle))
system.cpu.executeStats0.numCCRegReads     2796597177                       # Number of times the CC registers were read (Count)
system.cpu.executeStats0.numCCRegWrites    1684347463                       # Number of times the CC registers were written (Count)
system.cpu.executeStats0.numFpRegReads      597841319                       # Number of times the floating registers were read (Count)
system.cpu.executeStats0.numFpRegWrites     570481220                       # Number of times the floating registers were written (Count)
system.cpu.executeStats0.numIntRegReads    3638833596                       # Number of times the integer registers were read (Count)
system.cpu.executeStats0.numIntRegWrites   2158760690                       # Number of times the integer registers were written (Count)
system.cpu.executeStats0.numMemRefs         607873403                       # Number of memory refs (Count)
system.cpu.executeStats0.numMiscRegReads   1367291299                       # Number of times the Misc registers were read (Count)
system.cpu.executeStats0.numMiscRegWrites          828                       # Number of times the Misc registers were written (Count)
system.cpu.executeStats0.numVecAluAccesses            0                       # Number of vector alu accesses (Count)
system.cpu.executeStats0.numDiscardedOps            0                       # Number of ops (including micro ops) which were discarded before commit (Count)
system.cpu.fetch.predictedBranches          502073332                       # Number of branches that fetch has predicted taken (Count)
system.cpu.fetch.cycles                    1994494879                       # Number of cycles fetch has run and was not squashing or blocked (Cycle)
system.cpu.fetch.squashCycles                92543454                       # Number of cycles fetch has spent squashing (Cycle)
system.cpu.fetch.tlbCycles                          1                       # Number of cycles fetch has spent waiting for tlb (Cycle)
system.cpu.fetch.miscStallCycles                  811                       # Number of cycles fetch has spent waiting on interrupts, or bad addresses, or out of MSHRs (Cycle)
system.cpu.fetch.pendingTrapStallCycles          6768                       # Number of stall cycles due to pending traps (Cycle)
[...]
system.mem_ctrl.dram.bytesWritten::total      3299328                       # Number of bytes written to this memory (Byte)
system.mem_ctrl.dram.numReads::cpu.inst          2477                       # Number of read requests responded to by this memory (Count)
system.mem_ctrl.dram.numReads::cpu.data         77703                       # Number of read requests responded to by this memory (Count)
system.mem_ctrl.dram.numReads::total            80180                       # Number of read requests responded to by this memory (Count)
system.mem_ctrl.dram.numWrites::writebacks        51552                       # Number of write requests responded to by this memory (Count)
system.mem_ctrl.dram.numWrites::total           51552                       # Number of write requests responded to by this memory (Count)
system.mem_ctrl.dram.bwRead::cpu.inst        11267771                       # Total read bandwidth from this memory ((Byte/Second))
system.mem_ctrl.dram.bwRead::cpu.data       353467760                       # Total read bandwidth from this memory ((Byte/Second))
system.mem_ctrl.dram.bwRead::total          364735532                       # Total read bandwidth from this memory ((Byte/Second))
system.mem_ctrl.dram.bwInstRead::cpu.inst     11267771                       # Instruction read bandwidth from this memory ((Byte/Second))
system.mem_ctrl.dram.bwInstRead::total       11267771                       # Instruction read bandwidth from this memory ((Byte/Second))
system.mem_ctrl.dram.bwWrite::writebacks    234507934                       # Write bandwidth from this memory ((Byte/Second))
system.mem_ctrl.dram.bwWrite::total         234507934                       # Write bandwidth from this memory ((Byte/Second))
system.mem_ctrl.dram.bwTotal::writebacks    234507934                       # Total bandwidth to/from this memory ((Byte/Second))
system.mem_ctrl.dram.bwTotal::cpu.inst       11267771                       # Total bandwidth to/from this memory ((Byte/Second))
system.mem_ctrl.dram.bwTotal::cpu.data      353467760                       # Total bandwidth to/from this memory ((Byte/Second))
system.mem_ctrl.dram.bwTotal::total         599243465                       # Total bandwidth to/from this memory ((Byte/Second))
system.mem_ctrl.dram.readBursts                 80073                       # Number of DRAM read bursts (Count)
system.mem_ctrl.dram.writeBursts                51558                       # Number of DRAM write bursts (Count)
system.mem_ctrl.dram.perBankRdBursts::0          4791                       # Per bank write bursts (Count)
system.mem_ctrl.dram.perBankRdBursts::1          4702                       # Per bank write bursts (Count)
system.mem_ctrl.dram.perBankRdBursts::2          4804                       # Per bank write bursts (Count)
system.mem_ctrl.dram.perBankRdBursts::3          4747                       # Per bank write bursts (Count)
system.mem_ctrl.dram.perBankRdBursts::4          4849                       # Per bank write bursts (Count)
system.mem_ctrl.dram.perBankRdBursts::5          5116                       # Per bank write bursts (Count)
system.mem_ctrl.dram.perBankRdBursts::6          5433                       # Per bank write bursts (Count)
system.mem_ctrl.dram.perBankRdBursts::7          5697                       # Per bank write bursts (Count)
system.mem_ctrl.dram.perBankRdBursts::8          4844                       # Per bank write bursts (Count)
system.mem_ctrl.dram.perBankRdBursts::9          4939                       # Per bank write bursts (Count)
system.mem_ctrl.dram.perBankRdBursts::10         4948                       # Per bank write bursts (Count)
system.mem_ctrl.dram.perBankRdBursts::11         5159                       # Per bank write bursts (Count)
system.mem_ctrl.dram.perBankRdBursts::12         5139                       # Per bank write bursts (Count)
system.mem_ctrl.dram.perBankRdBursts::13         5045                       # Per bank write bursts (Count)
system.mem_ctrl.dram.perBankRdBursts::14         4821                       # Per bank write bursts (Count)
system.mem_ctrl.dram.perBankRdBursts::15         5039                       # Per bank write bursts (Count)
system.mem_ctrl.dram.perBankWrBursts::0          3183                       # Per bank write bursts (Count)
system.mem_ctrl.dram.perBankWrBursts::1          3174                       # Per bank write bursts (Count)
system.mem_ctrl.dram.perBankWrBursts::2          3164                       # Per bank write bursts (Count)
system.mem_ctrl.dram.perBankWrBursts::3          3084                       # Per bank write bursts (Count)
system.mem_ctrl.dram.perBankWrBursts::4          3074                       # Per bank write bursts (Count)
system.mem_ctrl.dram.perBankWrBursts::5          3188                       # Per bank write bursts (Count)
system.mem_ctrl.dram.perBankWrBursts::6          3112                       # Per bank write bursts (Count)
system.mem_ctrl.dram.perBankWrBursts::7          3926                       # Per bank write bursts (Count)
system.mem_ctrl.dram.perBankWrBursts::8          3099                       # Per bank write bursts (Count)
system.mem_ctrl.dram.perBankWrBursts::9          3077                       # Per bank write bursts (Count)
system.mem_ctrl.dram.perBankWrBursts::10         3222                       # Per bank write bursts (Count)
system.mem_ctrl.dram.perBankWrBursts::11         3225                       # Per bank write bursts (Count)
system.mem_ctrl.dram.perBankWrBursts::12         3418                       # Per bank write bursts (Count)
system.mem_ctrl.dram.perBankWrBursts::13         3207                       # Per bank write bursts (Count)
system.mem_ctrl.dram.perBankWrBursts::14         3202                       # Per bank write bursts (Count)
system.mem_ctrl.dram.perBankWrBursts::15         3203                       # Per bank write bursts (Count)
system.mem_ctrl.dram.totQLat                640964000                       # Total ticks spent queuing (Tick)
system.mem_ctrl.dram.totBusLat              400365000                       # Total ticks spent in databus transfers (Tick)
system.mem_ctrl.dram.totMemAccLat          2142332750                       # Total ticks spent from burst creation until serviced by the DRAM (Tick)
system.mem_ctrl.dram.avgQLat                  8004.75                       # Average queueing delay per DRAM burst ((Tick/Count))
system.mem_ctrl.dram.avgBusLat                5000.00                       # Average bus latency per DRAM burst ((Tick/Count))
system.mem_ctrl.dram.avgMemAccLat            26754.75                       # Average memory access latency per DRAM burst ((Tick/Count))
system.mem_ctrl.dram.readRowHits                69786                       # Number of row buffer hits during reads (Count)
system.mem_ctrl.dram.writeRowHits               46107                       # Number of row buffer hits during writes (Count)
system.mem_ctrl.dram.readRowHitRate             87.15                       # Row buffer hit rate for reads (Ratio)
system.mem_ctrl.dram.writeRowHitRate            89.43                       # Row buffer hit rate for writes (Ratio)
system.mem_ctrl.dram.bytesPerActivate::samples        15737                       # Bytes accessed per row activation (Byte)
system.mem_ctrl.dram.bytesPerActivate::mean   535.323378                       # Bytes accessed per row activation (Byte)
system.mem_ctrl.dram.bytesPerActivate::gmean   340.807084                       # Bytes accessed per row activation (Byte)
system.mem_ctrl.dram.bytesPerActivate::stdev   394.729283                       # Bytes accessed per row activation (Byte)
system.mem_ctrl.dram.bytesPerActivate::0-127         2880     18.30%     18.30% # Bytes accessed per row activation (Byte)
system.mem_ctrl.dram.bytesPerActivate::128-255         3075     19.54%     37.84% # Bytes accessed per row activation (Byte)
system.mem_ctrl.dram.bytesPerActivate::256-383         1079      6.86%     44.70% # Bytes accessed per row activation (Byte)
system.mem_ctrl.dram.bytesPerActivate::384-511          672      4.27%     48.97% # Bytes accessed per row activation (Byte)
system.mem_ctrl.dram.bytesPerActivate::512-639          613      3.90%     52.86% # Bytes accessed per row activation (Byte)
system.mem_ctrl.dram.bytesPerActivate::640-767          736      4.68%     57.54% # Bytes accessed per row activation (Byte)
system.mem_ctrl.dram.bytesPerActivate::768-895         1382      8.78%     66.32% # Bytes accessed per row activation (Byte)
system.mem_ctrl.dram.bytesPerActivate::896-1023         1534      9.75%     76.07% # Bytes accessed per row activation (Byte)
system.mem_ctrl.dram.bytesPerActivate::1024-1151         3766     23.93%    100.00% # Bytes accessed per row activation (Byte)
system.mem_ctrl.dram.bytesPerActivate::total        15737                       # Bytes accessed per row activation (Byte)
system.mem_ctrl.dram.dramBytesRead            5124672                       # Total bytes read (Byte)
system.mem_ctrl.dram.dramBytesWritten         3299712                       # Total bytes written (Byte)
system.mem_ctrl.dram.avgRdBW               364.248793                       # Average DRAM read bandwidth in MiBytes/s ((Byte/Second))
system.mem_ctrl.dram.avgWrBW               234.535228                       # Average DRAM write bandwidth in MiBytes/s ((Byte/Second))
system.mem_ctrl.dram.peakBW                  12800.00                       # Theoretical peak bandwidth in MiByte/s ((Byte/Second))
system.mem_ctrl.dram.busUtil                     4.68                       # Data bus utilization in percentage (Ratio)
system.mem_ctrl.dram.busUtilRead                 2.85                       # Data bus utilization in percentage for reads (Ratio)
system.mem_ctrl.dram.busUtilWrite                1.83                       # Data bus utilization in percentage for writes (Ratio)
system.mem_ctrl.dram.pageHitRate                88.04                       # Row buffer hit rate, read and write combined (Ratio)
system.mem_ctrl.dram.power_state.pwrStateResidencyTicks::UNDEFINED  14069153000                       # Cumulative time (in ticks) in various power states (Tick)
system.mem_ctrl.dram.rank0.actEnergy         57305640                       # Energy for activate commands per rank (pJ) (Joule)
system.mem_ctrl.dram.rank0.preEnergy         30458670                       # Energy for precharge commands per rank (pJ) (Joule)
system.mem_ctrl.dram.rank0.readEnergy       286592460                       # Energy for read commands per rank (pJ) (Joule)
system.mem_ctrl.dram.rank0.writeEnergy      135224100                       # Energy for write commands per rank (pJ) (Joule)
system.mem_ctrl.dram.rank0.refreshEnergy 1110654480.000000                       # Energy for refresh commands per rank (pJ) (Joule)
system.mem_ctrl.dram.rank0.actBackEnergy   5272088460                       # Energy for active background per rank (pJ) (Joule)
system.mem_ctrl.dram.rank0.preBackEnergy    962901120                       # Energy for precharge background per rank (pJ) (Joule)
system.mem_ctrl.dram.rank0.actPowerDownEnergy            0                       # Energy for active power-down per rank (pJ) (Joule)
system.mem_ctrl.dram.rank0.prePowerDownEnergy            0                       # Energy for precharge power-down per rank (pJ) (Joule)
system.mem_ctrl.dram.rank0.selfRefreshEnergy            0                       # Energy for self refresh per rank (pJ) (Joule)
system.mem_ctrl.dram.rank0.totalEnergy     7855224930                       # Total energy per rank (pJ) (Joule)
system.mem_ctrl.dram.rank0.averagePower    558.329626                       # Core power per rank (mW) (Watt)
system.mem_ctrl.dram.rank0.totalIdleTime            0                       # Total Idle time Per DRAM Rank (Tick)
system.mem_ctrl.dram.rank0.pwrStateTime::IDLE   2451186500                       # Time in different power states (Tick)
system.mem_ctrl.dram.rank0.pwrStateTime::REF    469820000                       # Time in different power states (Tick)
system.mem_ctrl.dram.rank0.pwrStateTime::SREF            0                       # Time in different power states (Tick)
system.mem_ctrl.dram.rank0.pwrStateTime::PRE_PDN            0                       # Time in different power states (Tick)
system.mem_ctrl.dram.rank0.pwrStateTime::ACT  11148146500                       # Time in different power states (Tick)
system.mem_ctrl.dram.rank0.pwrStateTime::ACT_PDN            0                       # Time in different power states (Tick)
system.mem_ctrl.dram.rank1.actEnergy         55063680                       # Energy for activate commands per rank (pJ) (Joule)
system.mem_ctrl.dram.rank1.preEnergy         29263245                       # Energy for precharge commands per rank (pJ) (Joule)
system.mem_ctrl.dram.rank1.readEnergy       285128760                       # Energy for read commands per rank (pJ) (Joule)
system.mem_ctrl.dram.rank1.writeEnergy      133908660                       # Energy for write commands per rank (pJ) (Joule)
system.mem_ctrl.dram.rank1.refreshEnergy 1110654480.000000                       # Energy for refresh commands per rank (pJ) (Joule)
system.mem_ctrl.dram.rank1.actBackEnergy   5254490850                       # Energy for active background per rank (pJ) (Joule)
system.mem_ctrl.dram.rank1.preBackEnergy    977720160                       # Energy for precharge background per rank (pJ) (Joule)
system.mem_ctrl.dram.rank1.actPowerDownEnergy            0                       # Energy for active power-down per rank (pJ) (Joule)
system.mem_ctrl.dram.rank1.prePowerDownEnergy            0                       # Energy for precharge power-down per rank (pJ) (Joule)
system.mem_ctrl.dram.rank1.selfRefreshEnergy            0                       # Energy for self refresh per rank (pJ) (Joule)
system.mem_ctrl.dram.rank1.totalEnergy     7846229835                       # Total energy per rank (pJ) (Joule)
system.mem_ctrl.dram.rank1.averagePower    557.690277                       # Core power per rank (mW) (Watt)
system.mem_ctrl.dram.rank1.totalIdleTime            0                       # Total Idle time Per DRAM Rank (Tick)
system.mem_ctrl.dram.rank1.pwrStateTime::IDLE   2486110000                       # Time in different power states (Tick)
system.mem_ctrl.dram.rank1.pwrStateTime::REF    469820000                       # Time in different power states (Tick)
system.mem_ctrl.dram.rank1.pwrStateTime::SREF            0                       # Time in different power states (Tick)
system.mem_ctrl.dram.rank1.pwrStateTime::PRE_PDN            0                       # Time in different power states (Tick)
system.mem_ctrl.dram.rank1.pwrStateTime::ACT  11113223000                       # Time in different power states (Tick)
system.mem_ctrl.dram.rank1.pwrStateTime::ACT_PDN            0                       # Time in different power states (Tick)
system.mem_ctrl.power_state.pwrStateResidencyTicks::UNDEFINED  14069153000                       # Cumulative time (in ticks) in various power states (Tick)
system.membus.transDist::ReadResp               79765                       # Transaction distribution (Count)
system.membus.transDist::WritebackDirty         51552                       # Transaction distribution (Count)
system.membus.transDist::CleanEvict             28627                       # Transaction distribution (Count)
system.membus.transDist::ReadExReq                415                       # Transaction distribution (Count)
system.membus.transDist::ReadExResp               415                       # Transaction distribution (Count)
system.membus.transDist::ReadSharedReq          79765                       # Transaction distribution (Count)
system.membus.pktCount_system.l2_cache.mem_side_port::system.mem_ctrl.port       240539                       # Packet count per connected requestor and responder (Count)
system.membus.pktCount_system.l2_cache.mem_side_port::total       240539                       # Packet count per connected requestor and responder (Count)
system.membus.pktCount::total                  240539                       # Packet count per connected requestor and responder (Count)
system.membus.pktSize_system.l2_cache.mem_side_port::system.mem_ctrl.port      8430848                       # Cumulative packet size per connected requestor and responder (Byte)
system.membus.pktSize_system.l2_cache.mem_side_port::total      8430848                       # Cumulative packet size per connected requestor and responder (Byte)
system.membus.pktSize::total                  8430848                       # Cumulative packet size per connected requestor and responder (Byte)
system.membus.snoops                                0                       # Total snoops (Count)
system.membus.snoopTraffic                          0                       # Total snoop traffic (Byte)
system.membus.snoopFanout::samples              80180                       # Request fanout histogram (Count)
system.membus.snoopFanout::mean                     0                       # Request fanout histogram (Count)
system.membus.snoopFanout::stdev                    0                       # Request fanout histogram (Count)
system.membus.snoopFanout::underflows               0      0.00%      0.00% # Request fanout histogram (Count)
system.membus.snoopFanout::0                    80180    100.00%    100.00% # Request fanout histogram (Count)
system.membus.snoopFanout::1                        0      0.00%    100.00% # Request fanout histogram (Count)
system.membus.snoopFanout::overflows                0      0.00%    100.00% # Request fanout histogram (Count)
system.membus.snoopFanout::min_value                0                       # Request fanout histogram (Count)
system.membus.snoopFanout::max_value                0                       # Request fanout histogram (Count)
system.membus.snoopFanout::total                80180                       # Request fanout histogram (Count)
system.membus.power_state.pwrStateResidencyTicks::UNDEFINED  14069153000                       # Cumulative time (in ticks) in various power states (Tick)
system.membus.reqLayer2.occupancy           366567000                       # Layer occupancy (ticks) (Tick)
system.membus.reqLayer2.utilization               0.0                       # Layer utilization (Ratio)
system.membus.respLayer2.occupancy          423840250                       # Layer occupancy (ticks) (Tick)
system.membus.respLayer2.utilization              0.0                       # Layer utilization (Ratio)
system.membus.snoop_filter.totRequests         160359                       # Total number of requests made to the snoop filter. (Count)
system.membus.snoop_filter.hitSingleRequests        80179                       # Number of requests hitting in the snoop filter with a single holder of the requested data. (Count)
system.membus.snoop_filter.hitMultiRequests            0                       # Number of requests hitting in the snoop filter with multiple (>1) holders of the requested data. (Count)
system.membus.snoop_filter.totSnoops                0                       # Total number of snoops made to the snoop filter. (Count)
system.membus.snoop_filter.hitSingleSnoops            0                       # Number of snoops hitting in the snoop filter with a single holder of the requested data. (Count)
system.membus.snoop_filter.hitMultiSnoops            0                       # Number of snoops hitting in the snoop filter with multiple (>1) holders of the requested data. (Count)
system.workload.inst.arm                            0                       # number of arm instructions executed (Count)
system.workload.inst.quiesce                        0                       # number of quiesce instructions executed (Count)

---------- End Simulation Statistics   ----------
