
---------- Begin Simulation Statistics ----------
simSeconds                                   2.113312                       # Number of seconds simulated (Second)
simTicks                                 2113312397000                       # Number of ticks simulated (Tick)
finalTick                                2113312397000                       # Number of ticks from beginning of simulation (restored from checkpoints and never reset) (Tick)
simFreq                                  1000000000000                       # The number of ticks per simulated second ((Tick/Second))
hostSeconds                                   9372.64                       # Real time elapsed on the host (Second)
hostTickRate                                225476787                       # The number of ticks simulated per host second (ticks/s) ((Tick/Second))
hostMemory                                    8742144                       # Number of bytes of host memory used (Byte)
simInsts                                   1566797586                       # Number of instructions simulated (Count)
simOps                                     2751969689                       # Number of ops (including micro ops) simulated (Count)
hostInstRate                                   167167                       # Simulator instruction rate (inst/s) ((Count/Second))
hostOpRate                                     293617                       # Simulator op (including micro ops) rate (op/s) ((Count/Second))
system.clk_domain.clock                          1000                       # Clock period in ticks (Tick)
system.clk_domain.voltage_domain.voltage            1                       # Voltage in Volts (Volt)
system.cpu.numCycles                       2113312398                       # Number of cpu cycles simulated (Cycle)
system.cpu.cpi                               1.348810                       # CPI: cycles per instruction (core level) ((Cycle/Count))
system.cpu.ipc                               0.741394                       # IPC: instructions per cycle (core level) ((Count/Cycle))
system.cpu.numWorkItemsStarted                      0                       # Number of work items this cpu started (Count)
system.cpu.numWorkItemsCompleted                    0                       # Number of work items this cpu completed (Count)
system.cpu.instsAdded                      4152265891                       # Number of instructions added to the IQ (excludes non-spec) (Count)
system.cpu.nonSpecInstsAdded                   321969                       # Number of non-speculative instructions added to the IQ (Count)
system.cpu.instsIssued                     3829536419                       # Number of instructions issued (Count)
system.cpu.squashedInstsIssued                9422749                       # Number of squashed instructions issued (Count)
system.cpu.squashedInstsExamined           1400618150                       # Number of squashed instructions iterated over during squash; mainly for profiling (Count)
system.cpu.squashedOperandsExamined        1910245195                       # Number of squashed operands that are examined and possibly removed from graph (Count)
system.cpu.squashedNonSpecRemoved                6412                       # Number of squashed non-spec instructions that were removed (Count)
system.cpu.numIssuedDist::samples          2107734119                       # Number of insts issued each cycle (Count)
system.cpu.numIssuedDist::mean               1.816897                       # Number of insts issued each cycle (Count)
system.cpu.numIssuedDist::stdev              2.380515                       # Number of insts issued each cycle (Count)
system.cpu.numIssuedDist::underflows                0      0.00%      0.00% # Number of insts issued each cycle (Count)
system.cpu.numIssuedDist::0                 958924076     45.50%     45.50% # Number of insts issued each cycle (Count)
system.cpu.numIssuedDist::1                 329913351     15.65%     61.15% # Number of insts issued each cycle (Count)
system.cpu.numIssuedDist::2                 243434517     11.55%     72.70% # Number of insts issued each cycle (Count)
system.cpu.numIssuedDist::3                 145001121      6.88%     79.58% # Number of insts issued each cycle (Count)
system.cpu.numIssuedDist::4                  90010243      4.27%     83.85% # Number of insts issued each cycle (Count)
system.cpu.numIssuedDist::5                  75066278      3.56%     87.41% # Number of insts issued each cycle (Count)
system.cpu.numIssuedDist::6                 101235112      4.80%     92.21% # Number of insts issued each cycle (Count)
system.cpu.numIssuedDist::7                  78227731      3.71%     95.92% # Number of insts issued each cycle (Count)
system.cpu.numIssuedDist::8                  85921690      4.08%    100.00% # Number of insts issued each cycle (Count)
system.cpu.numIssuedDist::overflows                 0      0.00%    100.00% # Number of insts issued each cycle (Count)
system.cpu.numIssuedDist::min_value                 0                       # Number of insts issued each cycle (Count)
system.cpu.numIssuedDist::max_value                 8                       # Number of insts issued each cycle (Count)
system.cpu.numIssuedDist::total            2107734119                       # Number of insts issued each cycle (Count)
system.cpu.statFuBusy::No_OpClass                   0      0.00%      0.00% # attempts to use FU when none available (Count)
system.cpu.statFuBusy::IntAlu                11224617     73.56%     73.56% # attempts to use FU when none available (Count)
system.cpu.statFuBusy::IntMult                      0      0.00%     73.56% # attempts to use FU when none available (Count)
system.cpu.statFuBusy::IntDiv                       0      0.00%     73.56% # attempts to use FU when none available (Count)
system.cpu.statFuBusy::FloatAdd                     0      0.00%     73.56% # attempts to use FU when none available (Count)
system.cpu.statFuBusy::FloatCmp                     0      0.00%     73.56% # attempts to use FU when none available (Count)
system.cpu.statFuBusy::FloatCvt                     0      0.00%     73.56% # attempts to use FU when none available (Count)
system.cpu.statFuBusy::FloatMult                    0      0.00%     73.56% # attempts to use FU when none available (Count)
system.cpu.statFuBusy::FloatMultAcc                 0      0.00%     73.56% # attempts to use FU when none available (Count)
system.cpu.statFuBusy::FloatDiv                     0      0.00%     73.56% # attempts to use FU when none available (Count)
system.cpu.statFuBusy::FloatMisc                    0      0.00%     73.56% # attempts to use FU when none available (Count)
system.cpu.statFuBusy::FloatSqrt                    0      0.00%     73.56% # attempts to use FU when none available (Count)
system.cpu.statFuBusy::SimdAdd                     11      0.00%     73.56% # attempts to use FU when none available (Count)
system.cpu.statFuBusy::SimdAddAcc                   0      0.00%     73.56% # attempts to use FU when none available (Count)
system.cpu.statFuBusy::SimdAlu                  23740      0.16%     73.72% # attempts to use FU when none available (Count)
system.cpu.statFuBusy::SimdCmp                      0      0.00%     73.72% # attempts to use FU when none available (Count)
system.cpu.statFuBusy::SimdCvt                    163      0.00%     73.72% # attempts to use FU when none available (Count)
system.cpu.statFuBusy::SimdMisc                    31      0.00%     73.72% # attempts to use FU when none available (Count)
system.cpu.statFuBusy::SimdMult                     0      0.00%     73.72% # attempts to use FU when none available (Count)
system.cpu.statFuBusy::SimdMultAcc                  0      0.00%     73.72% # attempts to use FU when none available (Count)
system.cpu.statFuBusy::SimdMatMultAcc               0      0.00%     73.72% # attempts to use FU when none available (Count)
system.cpu.statFuBusy::SimdShift                   66      0.00%     73.72% # attempts to use FU when none available (Count)
system.cpu.statFuBusy::SimdShiftAcc                 0      0.00%     73.72% # attempts to use FU when none available (Count)
system.cpu.statFuBusy::SimdDiv                      0      0.00%     73.72% # attempts to use FU when none available (Count)
system.cpu.statFuBusy::SimdSqrt                     0      0.00%     73.72% # attempts to use FU when none available (Count)
system.cpu.statFuBusy::SimdFloatAdd                 0      0.00%     73.72% # attempts to use FU when none available (Count)
system.cpu.statFuBusy::SimdFloatAlu                 0      0.00%     73.72% # attempts to use FU when none available (Count)
system.cpu.statFuBusy::SimdFloatCmp                 0      0.00%     73.72% # attempts to use FU when none available (Count)
system.cpu.statFuBusy::SimdFloatCvt            835522      5.48%     79.20% # attempts to use FU when none available (Count)
system.cpu.statFuBusy::SimdFloatDiv                 0      0.00%     79.20% # attempts to use FU when none available (Count)
system.cpu.statFuBusy::SimdFloatMisc                0      0.00%     79.20% # attempts to use FU when none available (Count)
system.cpu.statFuBusy::SimdFloatMult                0      0.00%     79.20% # attempts to use FU when none available (Count)
system.cpu.statFuBusy::SimdFloatMultAcc             0      0.00%     79.20% # attempts to use FU when none available (Count)
system.cpu.statFuBusy::SimdFloatMatMultAcc            0      0.00%     79.20% # attempts to use FU when none available (Count)
system.cpu.statFuBusy::SimdFloatSqrt                0      0.00%     79.20% # attempts to use FU when none available (Count)
system.cpu.statFuBusy::SimdReduceAdd                0      0.00%     79.20% # attempts to use FU when none available (Count)
system.cpu.statFuBusy::SimdReduceAlu                0      0.00%     79.20% # attempts to use FU when none available (Count)
system.cpu.statFuBusy::SimdReduceCmp                0      0.00%     79.20% # attempts to use FU when none available (Count)
system.cpu.statFuBusy::SimdFloatReduceAdd            0      0.00%     79.20% # attempts to use FU when none available (Count)
system.cpu.statFuBusy::SimdFloatReduceCmp            0      0.00%     79.20% # attempts to use FU when none available (Count)
system.cpu.statFuBusy::SimdAes                      0      0.00%     79.20% # attempts to use FU when none available (Count)
system.cpu.statFuBusy::SimdAesMix                   0      0.00%     79.20% # attempts to use FU when none available (Count)
system.cpu.statFuBusy::SimdSha1Hash                 0      0.00%     79.20% # attempts to use FU when none available (Count)
system.cpu.statFuBusy::SimdSha1Hash2                0      0.00%     79.20% # attempts to use FU when none available (Count)
system.cpu.statFuBusy::SimdSha256Hash               0      0.00%     79.20% # attempts to use FU when none available (Count)
system.cpu.statFuBusy::SimdSha256Hash2              0      0.00%     79.20% # attempts to use FU when none available (Count)
system.cpu.statFuBusy::SimdShaSigma2                0      0.00%     79.20% # attempts to use FU when none available (Count)
system.cpu.statFuBusy::SimdShaSigma3                0      0.00%     79.20% # attempts to use FU when none available (Count)
system.cpu.statFuBusy::SimdPredAlu                  0      0.00%     79.20% # attempts to use FU when none available (Count)
system.cpu.statFuBusy::Matrix                       0      0.00%     79.20% # attempts to use FU when none available (Count)
system.cpu.statFuBusy::MatrixMov                    0      0.00%     79.20% # attempts to use FU when none available (Count)
system.cpu.statFuBusy::MatrixOP                     0      0.00%     79.20% # attempts to use FU when none available (Count)
system.cpu.statFuBusy::MemRead                 807390      5.29%     84.49% # attempts to use FU when none available (Count)
system.cpu.statFuBusy::MemWrite                577023      3.78%     88.27% # attempts to use FU when none available (Count)
system.cpu.statFuBusy::FloatMemRead           1505250      9.86%     98.13% # attempts to use FU when none available (Count)
system.cpu.statFuBusy::FloatMemWrite           284823      1.87%    100.00% # attempts to use FU when none available (Count)
system.cpu.statFuBusy::IprAccess                    0      0.00%    100.00% # attempts to use FU when none available (Count)
system.cpu.statFuBusy::InstPrefetch                 0      0.00%    100.00% # attempts to use FU when none available (Count)
system.cpu.statFuBusy::SimdUnitStrideLoad            0      0.00%    100.00% # attempts to use FU when none available (Count)
system.cpu.statFuBusy::SimdUnitStrideStore            0      0.00%    100.00% # attempts to use FU when none available (Count)
system.cpu.statFuBusy::SimdUnitStrideMaskLoad            0      0.00%    100.00% # attempts to use FU when none available (Count)
system.cpu.statFuBusy::SimdUnitStrideMaskStore            0      0.00%    100.00% # attempts to use FU when none available (Count)
system.cpu.statFuBusy::SimdStridedLoad              0      0.00%    100.00% # attempts to use FU when none available (Count)
system.cpu.statFuBusy::SimdStridedStore             0      0.00%    100.00% # attempts to use FU when none available (Count)
system.cpu.statFuBusy::SimdIndexedLoad              0      0.00%    100.00% # attempts to use FU when none available (Count)
system.cpu.statFuBusy::SimdIndexedStore             0      0.00%    100.00% # attempts to use FU when none available (Count)
system.cpu.statFuBusy::SimdWholeRegisterLoad            0      0.00%    100.00% # attempts to use FU when none available (Count)
system.cpu.statFuBusy::SimdWholeRegisterStore            0      0.00%    100.00% # attempts to use FU when none available (Count)
system.cpu.statFuBusy::SimdUnitStrideFaultOnlyFirstLoad            0      0.00%    100.00% # attempts to use FU when none available (Count)
system.cpu.statFuBusy::SimdUnitStrideSegmentedLoad            0      0.00%    100.00% # attempts to use FU when none available (Count)
system.cpu.statFuBusy::SimdUnitStrideSegmentedStore            0      0.00%    100.00% # attempts to use FU when none available (Count)
system.cpu.statFuBusy::SimdExt                      0      0.00%    100.00% # attempts to use FU when none available (Count)
system.cpu.statFuBusy::SimdFloatExt                 0      0.00%    100.00% # attempts to use FU when none available (Count)
system.cpu.statFuBusy::SimdConfig                   0      0.00%    100.00% # attempts to use FU when none available (Count)
system.cpu.statIssuedInstType_0::No_OpClass     33874615      0.88%      0.88% # Number of instructions issued per FU type, per thread (Count)
system.cpu.statIssuedInstType_0::IntAlu    2670366851     69.73%     70.62% # Number of instructions issued per FU type, per thread (Count)
system.cpu.statIssuedInstType_0::IntMult       818173      0.02%     70.64% # Number of instructions issued per FU type, per thread (Count)
system.cpu.statIssuedInstType_0::IntDiv         48118      0.00%     70.64% # Number of instructions issued per FU type, per thread (Count)
system.cpu.statIssuedInstType_0::FloatAdd    296172761      7.73%     78.37% # Number of instructions issued per FU type, per thread (Count)
system.cpu.statIssuedInstType_0::FloatCmp            0      0.00%     78.37% # Number of instructions issued per FU type, per thread (Count)
system.cpu.statIssuedInstType_0::FloatCvt         1472      0.00%     78.37% # Number of instructions issued per FU type, per thread (Count)
system.cpu.statIssuedInstType_0::FloatMult            0      0.00%     78.37% # Number of instructions issued per FU type, per thread (Count)
system.cpu.statIssuedInstType_0::FloatMultAcc            0      0.00%     78.37% # Number of instructions issued per FU type, per thread (Count)
system.cpu.statIssuedInstType_0::FloatDiv            0      0.00%     78.37% # Number of instructions issued per FU type, per thread (Count)
system.cpu.statIssuedInstType_0::FloatMisc            0      0.00%     78.37% # Number of instructions issued per FU type, per thread (Count)
system.cpu.statIssuedInstType_0::FloatSqrt            0      0.00%     78.37% # Number of instructions issued per FU type, per thread (Count)
system.cpu.statIssuedInstType_0::SimdAdd         7385      0.00%     78.37% # Number of instructions issued per FU type, per thread (Count)
system.cpu.statIssuedInstType_0::SimdAddAcc            0      0.00%     78.37% # Number of instructions issued per FU type, per thread (Count)
system.cpu.statIssuedInstType_0::SimdAlu      1014665      0.03%     78.40% # Number of instructions issued per FU type, per thread (Count)
system.cpu.statIssuedInstType_0::SimdCmp            6      0.00%     78.40% # Number of instructions issued per FU type, per thread (Count)
system.cpu.statIssuedInstType_0::SimdCvt        62630      0.00%     78.40% # Number of instructions issued per FU type, per thread (Count)
system.cpu.statIssuedInstType_0::SimdMisc      8799273      0.23%     78.63% # Number of instructions issued per FU type, per thread (Count)
system.cpu.statIssuedInstType_0::SimdMult            0      0.00%     78.63% # Number of instructions issued per FU type, per thread (Count)
system.cpu.statIssuedInstType_0::SimdMultAcc            0      0.00%     78.63% # Number of instructions issued per FU type, per thread (Count)
system.cpu.statIssuedInstType_0::SimdMatMultAcc            0      0.00%     78.63% # Number of instructions issued per FU type, per thread (Count)
system.cpu.statIssuedInstType_0::SimdShift         3665      0.00%     78.63% # Number of instructions issued per FU type, per thread (Count)
system.cpu.statIssuedInstType_0::SimdShiftAcc            0      0.00%     78.63% # Number of instructions issued per FU type, per thread (Count)
system.cpu.statIssuedInstType_0::SimdDiv            0      0.00%     78.63% # Number of instructions issued per FU type, per thread (Count)
system.cpu.statIssuedInstType_0::SimdSqrt            0      0.00%     78.63% # Number of instructions issued per FU type, per thread (Count)
system.cpu.statIssuedInstType_0::SimdFloatAdd          294      0.00%     78.63% # Number of instructions issued per FU type, per thread (Count)
system.cpu.statIssuedInstType_0::SimdFloatAlu            0      0.00%     78.63% # Number of instructions issued per FU type, per thread (Count)
system.cpu.statIssuedInstType_0::SimdFloatCmp            0      0.00%     78.63% # Number of instructions issued per FU type, per thread (Count)
system.cpu.statIssuedInstType_0::SimdFloatCvt    208565789      5.45%     84.08% # Number of instructions issued per FU type, per thread (Count)
system.cpu.statIssuedInstType_0::SimdFloatDiv       100275      0.00%     84.08% # Number of instructions issued per FU type, per thread (Count)
system.cpu.statIssuedInstType_0::SimdFloatMisc            0      0.00%     84.08% # Number of instructions issued per FU type, per thread (Count)
system.cpu.statIssuedInstType_0::SimdFloatMult            8      0.00%     84.08% # Number of instructions issued per FU type, per thread (Count)
system.cpu.statIssuedInstType_0::SimdFloatMultAcc            0      0.00%     84.08% # Number of instructions issued per FU type, per thread (Count)
system.cpu.statIssuedInstType_0::SimdFloatMatMultAcc            0      0.00%     84.08% # Number of instructions issued per FU type, per thread (Count)
system.cpu.statIssuedInstType_0::SimdFloatSqrt            0      0.00%     84.08% # Number of instructions issued per FU type, per thread (Count)
system.cpu.statIssuedInstType_0::SimdReduceAdd            0      0.00%     84.08% # Number of instructions issued per FU type, per thread (Count)
system.cpu.statIssuedInstType_0::SimdReduceAlu            0      0.00%     84.08% # Number of instructions issued per FU type, per thread (Count)
system.cpu.statIssuedInstType_0::SimdReduceCmp            0      0.00%     84.08% # Number of instructions issued per FU type, per thread (Count)
system.cpu.statIssuedInstType_0::SimdFloatReduceAdd            0      0.00%     84.08% # Number of instructions issued per FU type, per thread (Count)
system.cpu.statIssuedInstType_0::SimdFloatReduceCmp            0      0.00%     84.08% # Number of instructions issued per FU type, per thread (Count)
system.cpu.statIssuedInstType_0::SimdAes            0      0.00%     84.08% # Number of instructions issued per FU type, per thread (Count)
system.cpu.statIssuedInstType_0::SimdAesMix            0      0.00%     84.08% # Number of instructions issued per FU type, per thread (Count)
system.cpu.statIssuedInstType_0::SimdSha1Hash            0      0.00%     84.08% # Number of instructions issued per FU type, per thread (Count)
system.cpu.statIssuedInstType_0::SimdSha1Hash2            0      0.00%     84.08% # Number of instructions issued per FU type, per thread (Count)
system.cpu.statIssuedInstType_0::SimdSha256Hash            0      0.00%     84.08% # Number of instructions issued per FU type, per thread (Count)
system.cpu.statIssuedInstType_0::SimdSha256Hash2            0      0.00%     84.08% # Number of instructions issued per FU type, per thread (Count)
system.cpu.statIssuedInstType_0::SimdShaSigma2            0      0.00%     84.08% # Number of instructions issued per FU type, per thread (Count)
system.cpu.statIssuedInstType_0::SimdShaSigma3            0      0.00%     84.08% # Number of instructions issued per FU type, per thread (Count)
system.cpu.statIssuedInstType_0::SimdPredAlu            0      0.00%     84.08% # Number of instructions issued per FU type, per thread (Count)
system.cpu.statIssuedInstType_0::Matrix             0      0.00%     84.08% # Number of instructions issued per FU type, per thread (Count)
system.cpu.statIssuedInstType_0::MatrixMov            0      0.00%     84.08% # Number of instructions issued per FU type, per thread (Count)
system.cpu.statIssuedInstType_0::MatrixOP            0      0.00%     84.08% # Number of instructions issued per FU type, per thread (Count)
system.cpu.statIssuedInstType_0::MemRead    116175577      3.03%     87.11% # Number of instructions issued per FU type, per thread (Count)
system.cpu.statIssuedInstType_0::MemWrite     56114621      1.47%     88.58% # Number of instructions issued per FU type, per thread (Count)
system.cpu.statIssuedInstType_0::FloatMemRead    319812388      8.35%     96.93% # Number of instructions issued per FU type, per thread (Count)
system.cpu.statIssuedInstType_0::FloatMemWrite    117597853      3.07%    100.00% # Number of instructions issued per FU type, per thread (Count)
system.cpu.statIssuedInstType_0::IprAccess            0      0.00%    100.00% # Number of instructions issued per FU type, per thread (Count)
system.cpu.statIssuedInstType_0::InstPrefetch            0      0.00%    100.00% # Number of instructions issued per FU type, per thread (Count)
system.cpu.statIssuedInstType_0::SimdUnitStrideLoad            0      0.00%    100.00% # Number of instructions issued per FU type, per thread (Count)
system.cpu.statIssuedInstType_0::SimdUnitStrideStore            0      0.00%    100.00% # Number of instructions issued per FU type, per thread (Count)
system.cpu.statIssuedInstType_0::SimdUnitStrideMaskLoad            0      0.00%    100.00% # Number of instructions issued per FU type, per thread (Count)
system.cpu.statIssuedInstType_0::SimdUnitStrideMaskStore            0      0.00%    100.00% # Number of instructions issued per FU type, per thread (Count)
system.cpu.statIssuedInstType_0::SimdStridedLoad            0      0.00%    100.00% # Number of instructions issued per FU type, per thread (Count)
system.cpu.statIssuedInstType_0::SimdStridedStore            0      0.00%    100.00% # Number of instructions issued per FU type, per thread (Count)
system.cpu.statIssuedInstType_0::SimdIndexedLoad            0      0.00%    100.00% # Number of instructions issued per FU type, per thread (Count)
system.cpu.statIssuedInstType_0::SimdIndexedStore            0      0.00%    100.00% # Number of instructions issued per FU type, per thread (Count)
system.cpu.statIssuedInstType_0::SimdWholeRegisterLoad            0      0.00%    100.00% # Number of instructions issued per FU type, per thread (Count)
system.cpu.statIssuedInstType_0::SimdWholeRegisterStore            0      0.00%    100.00% # Number of instructions issued per FU type, per thread (Count)
system.cpu.statIssuedInstType_0::SimdUnitStrideFaultOnlyFirstLoad            0      0.00%    100.00% # Number of instructions issued per FU type, per thread (Count)
system.cpu.statIssuedInstType_0::SimdUnitStrideSegmentedLoad            0      0.00%    100.00% # Number of instructions issued per FU type, per thread (Count)
system.cpu.statIssuedInstType_0::SimdUnitStrideSegmentedStore            0      0.00%    100.00% # Number of instructions issued per FU type, per thread (Count)
system.cpu.statIssuedInstType_0::SimdExt            0      0.00%    100.00% # Number of instructions issued per FU type, per thread (Count)
system.cpu.statIssuedInstType_0::SimdFloatExt            0      0.00%    100.00% # Number of instructions issued per FU type, per thread (Count)
system.cpu.statIssuedInstType_0::SimdConfig            0      0.00%    100.00% # Number of instructions issued per FU type, per thread (Count)
system.cpu.statIssuedInstType_0::total     3829536419                       # Number of instructions issued per FU type, per thread (Count)
system.cpu.issueRate                         1.812101                       # Inst issue rate ((Count/Cycle))
system.cpu.fuBusy                            15258636                       # FU busy when requested (Count)
system.cpu.fuBusyRate                        0.003984                       # FU busy rate (busy events/executed inst) ((Count/Count))
system.cpu.intInstQueueReads               7866124323                       # Number of integer instruction queue reads (Count)
system.cpu.intInstQueueWrites              3882091414                       # Number of integer instruction queue writes (Count)
system.cpu.intInstQueueWakeupAccesses      2776108620                       # Number of integer instruction queue wakeup accesses (Count)
system.cpu.fpInstQueueReads                1925364018                       # Number of floating instruction queue reads (Count)
system.cpu.fpInstQueueWrites               1671198122                       # Number of floating instruction queue writes (Count)
system.cpu.fpInstQueueWakeupAccesses        859449153                       # Number of floating instruction queue wakeup accesses (Count)
system.cpu.vecInstQueueReads                        0                       # Number of vector instruction queue reads (Count)
system.cpu.vecInstQueueWrites                       0                       # Number of vector instruction queue writes (Count)
system.cpu.vecInstQueueWakeupAccesses               0                       # Number of vector instruction queue wakeup accesses (Count)
system.cpu.intAluAccesses                  2848178243                       # Number of integer alu accesses (Count)
system.cpu.fpAluAccesses                    962742197                       # Number of floating point alu accesses (Count)
system.cpu.vecAluAccesses                           0                       # Number of vector alu accesses (Count)
system.cpu.numSquashedInsts                 156469882                       # Number of squashed instructions skipped in execute (Count)
system.cpu.numSwp                                   0                       # Number of swp insts executed (Count)
system.cpu.timesIdled                          204536                       # Number of times that the entire CPU went into an idle state and unscheduled itself (Count)
system.cpu.idleCycles                         5578279                       # Total number of cycles that the CPU has spent unscheduled due to idling (Cycle)
system.cpu.MemDepUnit__0.insertedLoads      491688789                       # Number of loads inserted to the mem dependence unit. (Count)
system.cpu.MemDepUnit__0.insertedStores     204320162                       # Number of stores inserted to the mem dependence unit. (Count)
system.cpu.MemDepUnit__0.conflictingLoads    110269019                       # Number of conflicting loads. (Count)
system.cpu.MemDepUnit__0.conflictingStores     63118829                       # Number of conflicting stores. (Count)
system.cpu.MemDepUnit__1.insertedLoads              0                       # Number of loads inserted to the mem dependence unit. (Count)
system.cpu.MemDepUnit__1.insertedStores             0                       # Number of stores inserted to the mem dependence unit. (Count)
system.cpu.MemDepUnit__1.conflictingLoads            0                       # Number of conflicting loads. (Count)
system.cpu.MemDepUnit__1.conflictingStores            0                       # Number of conflicting stores. (Count)
system.cpu.MemDepUnit__2.insertedLoads              0                       # Number of loads inserted to the mem dependence unit. (Count)
system.cpu.MemDepUnit__2.insertedStores             0                       # Number of stores inserted to the mem dependence unit. (Count)
system.cpu.MemDepUnit__2.conflictingLoads            0                       # Number of conflicting loads. (Count)
system.cpu.MemDepUnit__2.conflictingStores            0                       # Number of conflicting stores. (Count)
system.cpu.MemDepUnit__3.insertedLoads              0                       # Number of loads inserted to the mem dependence unit. (Count)
system.cpu.MemDepUnit__3.insertedStores             0                       # Number of stores inserted to the mem dependence unit. (Count)
system.cpu.MemDepUnit__3.conflictingLoads            0                       # Number of conflicting loads. (Count)
system.cpu.MemDepUnit__3.conflictingStores            0                       # Number of conflicting stores. (Count)
system.cpu.branchPred.lookups_0::NoBranch         8013      0.00%      0.00% # Number of BP lookups (Count)
system.cpu.branchPred.lookups_0::Return       3874492      0.63%      0.63% # Number of BP lookups (Count)
system.cpu.branchPred.lookups_0::CallDirect      3512508      0.57%      1.20% # Number of BP lookups (Count)
system.cpu.branchPred.lookups_0::CallIndirect         4206      0.00%      1.20% # Number of BP lookups (Count)
system.cpu.branchPred.lookups_0::DirectCond    567865632     92.16%     93.36% # Number of BP lookups (Count)
system.cpu.branchPred.lookups_0::DirectUncond     39269110      6.37%     99.73% # Number of BP lookups (Count)
system.cpu.branchPred.lookups_0::IndirectCond            0      0.00%     99.73% # Number of BP lookups (Count)
system.cpu.branchPred.lookups_0::IndirectUncond      1649989      0.27%    100.00% # Number of BP lookups (Count)
system.cpu.branchPred.lookups_0::total      616183950                       # Number of BP lookups (Count)
system.cpu.branchPred.squashes_0::NoBranch         7699      0.00%      0.00% # Number of branches that got squashed (completely removed) as an earlier branch was mispredicted. (Count)
system.cpu.branchPred.squashes_0::Return       719381      0.22%      0.22% # Number of branches that got squashed (completely removed) as an earlier branch was mispredicted. (Count)
system.cpu.branchPred.squashes_0::CallDirect       360959      0.11%      0.33% # Number of branches that got squashed (completely removed) as an earlier branch was mispredicted. (Count)
system.cpu.branchPred.squashes_0::CallIndirect          639      0.00%      0.33% # Number of branches that got squashed (completely removed) as an earlier branch was mispredicted. (Count)
system.cpu.branchPred.squashes_0::DirectCond    309010642     92.60%     92.93% # Number of branches that got squashed (completely removed) as an earlier branch was mispredicted. (Count)
system.cpu.branchPred.squashes_0::DirectUncond     23480701      7.04%     99.97% # Number of branches that got squashed (completely removed) as an earlier branch was mispredicted. (Count)
system.cpu.branchPred.squashes_0::IndirectCond            0      0.00%     99.97% # Number of branches that got squashed (completely removed) as an earlier branch was mispredicted. (Count)
system.cpu.branchPred.squashes_0::IndirectUncond       112580      0.03%    100.00% # Number of branches that got squashed (completely removed) as an earlier branch was mispredicted. (Count)
system.cpu.branchPred.squashes_0::total     333692601                       # Number of branches that got squashed (completely removed) as an earlier branch was mispredicted. (Count)
system.cpu.branchPred.corrected_0::NoBranch          461      0.00%      0.00% # Number of branches that got corrected but not yet commited. Branches get corrected by decode or after execute. Also a branch misprediction can be detected out-of-order. Therefore, a corrected branch might not end up beeing committed in case an even earlier branch was mispredicted (Count)
system.cpu.branchPred.corrected_0::Return         1021      0.00%      0.00% # Number of branches that got corrected but not yet commited. Branches get corrected by decode or after execute. Also a branch misprediction can be detected out-of-order. Therefore, a corrected branch might not end up beeing committed in case an even earlier branch was mispredicted (Count)
system.cpu.branchPred.corrected_0::CallDirect         4251      0.01%      0.02% # Number of branches that got corrected but not yet commited. Branches get corrected by decode or after execute. Also a branch misprediction can be detected out-of-order. Therefore, a corrected branch might not end up beeing committed in case an even earlier branch was mispredicted (Count)
system.cpu.branchPred.corrected_0::CallIndirect          719      0.00%      0.02% # Number of branches that got corrected but not yet commited. Branches get corrected by decode or after execute. Also a branch misprediction can be detected out-of-order. Therefore, a corrected branch might not end up beeing committed in case an even earlier branch was mispredicted (Count)
system.cpu.branchPred.corrected_0::DirectCond     33074971     99.81%     99.83% # Number of branches that got corrected but not yet commited. Branches get corrected by decode or after execute. Also a branch misprediction can be detected out-of-order. Therefore, a corrected branch might not end up beeing committed in case an even earlier branch was mispredicted (Count)
system.cpu.branchPred.corrected_0::DirectUncond         3121      0.01%     99.84% # Number of branches that got corrected but not yet commited. Branches get corrected by decode or after execute. Also a branch misprediction can be detected out-of-order. Therefore, a corrected branch might not end up beeing committed in case an even earlier branch was mispredicted (Count)
system.cpu.branchPred.corrected_0::IndirectCond            0      0.00%     99.84% # Number of branches that got corrected but not yet commited. Branches get corrected by decode or after execute. Also a branch misprediction can be detected out-of-order. Therefore, a corrected branch might not end up beeing committed in case an even earlier branch was mispredicted (Count)
system.cpu.branchPred.corrected_0::IndirectUncond        54495      0.16%    100.00% # Number of branches that got corrected but not yet commited. Branches get corrected by decode or after execute. Also a branch misprediction can be detected out-of-order. Therefore, a corrected branch might not end up beeing committed in case an even earlier branch was mispredicted (Count)
system.cpu.branchPred.corrected_0::total     33139039                       # Number of branches that got corrected but not yet commited. Branches get corrected by decode or after execute. Also a branch misprediction can be detected out-of-order. Therefore, a corrected branch might not end up beeing committed in case an even earlier branch was mispredicted (Count)
system.cpu.branchPred.earlyResteers_0::NoBranch            0                       # Number of branches that got redirected after decode. (Count)
system.cpu.branchPred.earlyResteers_0::Return            0                       # Number of branches that got redirected after decode. (Count)
system.cpu.branchPred.earlyResteers_0::CallDirect            0                       # Number of branches that got redirected after decode. (Count)
system.cpu.branchPred.earlyResteers_0::CallIndirect            0                       # Number of branches that got redirected after decode. (Count)
system.cpu.branchPred.earlyResteers_0::DirectCond            0                       # Number of branches that got redirected after decode. (Count)
system.cpu.branchPred.earlyResteers_0::DirectUncond            0                       # Number of branches that got redirected after decode. (Count)
system.cpu.branchPred.earlyResteers_0::IndirectCond            0                       # Number of branches that got redirected after decode. (Count)
system.cpu.branchPred.earlyResteers_0::IndirectUncond            0                       # Number of branches that got redirected after decode. (Count)
system.cpu.branchPred.earlyResteers_0::total            0                       # Number of branches that got redirected after decode. (Count)
system.cpu.branchPred.committed_0::NoBranch          314      0.00%      0.00% # Number of branches finally committed  (Count)
system.cpu.branchPred.committed_0::Return      3155110      1.12%      1.12% # Number of branches finally committed  (Count)
system.cpu.branchPred.committed_0::CallDirect      3151548      1.12%      2.23% # Number of branches finally committed  (Count)
system.cpu.branchPred.committed_0::CallIndirect         3567      0.00%      2.23% # Number of branches finally committed  (Count)
system.cpu.branchPred.committed_0::DirectCond    258854990     91.63%     93.87% # Number of branches finally committed  (Count)
system.cpu.branchPred.committed_0::DirectUncond     15788409      5.59%     99.46% # Number of branches finally committed  (Count)
system.cpu.branchPred.committed_0::IndirectCond            0      0.00%     99.46% # Number of branches finally committed  (Count)
system.cpu.branchPred.committed_0::IndirectUncond      1537409      0.54%    100.00% # Number of branches finally committed  (Count)
system.cpu.branchPred.committed_0::total    282491347                       # Number of branches finally committed  (Count)
system.cpu.branchPred.mispredicted_0::NoBranch          314      0.00%      0.00% # Number of committed branches that were mispredicted. (Count)
system.cpu.branchPred.mispredicted_0::Return          963      0.00%      0.00% # Number of committed branches that were mispredicted. (Count)
system.cpu.branchPred.mispredicted_0::CallDirect         3387      0.01%      0.01% # Number of committed branches that were mispredicted. (Count)
system.cpu.branchPred.mispredicted_0::CallIndirect          693      0.00%      0.02% # Number of committed branches that were mispredicted. (Count)
system.cpu.branchPred.mispredicted_0::DirectCond     32704283     99.82%     99.83% # Number of committed branches that were mispredicted. (Count)
system.cpu.branchPred.mispredicted_0::DirectUncond         1629      0.00%     99.84% # Number of committed branches that were mispredicted. (Count)
system.cpu.branchPred.mispredicted_0::IndirectCond            0      0.00%     99.84% # Number of committed branches that were mispredicted. (Count)
system.cpu.branchPred.mispredicted_0::IndirectUncond        53583      0.16%    100.00% # Number of committed branches that were mispredicted. (Count)
system.cpu.branchPred.mispredicted_0::total     32764852                       # Number of committed branches that were mispredicted. (Count)
system.cpu.branchPred.targetProvider_0::NoTarget    152307669     24.72%     24.72% # The component providing the target for taken branches (Count)
system.cpu.branchPred.targetProvider_0::BTB    458396133     74.39%     99.11% # The component providing the target for taken branches (Count)
system.cpu.branchPred.targetProvider_0::RAS      3874489      0.63%     99.74% # The component providing the target for taken branches (Count)
system.cpu.branchPred.targetProvider_0::Indirect      1605659      0.26%    100.00% # The component providing the target for taken branches (Count)
system.cpu.branchPred.targetProvider_0::total    616183950                       # The component providing the target for taken branches (Count)
system.cpu.branchPred.targetWrong_0::NoBranch     13160256     39.72%     39.72% # Number of branches where the target was incorrect or not available at prediction time. (Count)
system.cpu.branchPred.targetWrong_0::Return     19931311     60.15%     99.86% # Number of branches where the target was incorrect or not available at prediction time. (Count)
system.cpu.branchPred.targetWrong_0::CallDirect         1020      0.00%     99.87% # Number of branches where the target was incorrect or not available at prediction time. (Count)
system.cpu.branchPred.targetWrong_0::CallIndirect        43733      0.13%    100.00% # Number of branches where the target was incorrect or not available at prediction time. (Count)
system.cpu.branchPred.targetWrong_0::DirectCond            0      0.00%    100.00% # Number of branches where the target was incorrect or not available at prediction time. (Count)
system.cpu.branchPred.targetWrong_0::DirectUncond            0      0.00%    100.00% # Number of branches where the target was incorrect or not available at prediction time. (Count)
system.cpu.branchPred.targetWrong_0::IndirectCond            0      0.00%    100.00% # Number of branches where the target was incorrect or not available at prediction time. (Count)
system.cpu.branchPred.targetWrong_0::IndirectUncond            0      0.00%    100.00% # Number of branches where the target was incorrect or not available at prediction time. (Count)
system.cpu.branchPred.targetWrong_0::total     33136320                       # Number of branches where the target was incorrect or not available at prediction time. (Count)
system.cpu.branchPred.condPredicted         567873645                       # Number of conditional branches predicted (Count)
system.cpu.branchPred.condPredictedTaken    415631970                       # Number of conditional branches predicted as taken (Count)
system.cpu.branchPred.condIncorrect          33139039                       # Number of conditional branches incorrect (Count)
system.cpu.branchPred.predTakenBTBMiss           9706                       # Number of branches predicted taken but missed in BTB (Count)
system.cpu.branchPred.NotTakenMispredicted     13207229                       # Number branches predicted 'not taken' but turned out to be taken (Count)
system.cpu.branchPred.TakenMispredicted      19931810                       # Number branches predicted taken but are actually not taken (Count)
system.cpu.branchPred.BTBLookups            616183950                       # Number of BTB lookups (Count)
system.cpu.branchPred.BTBUpdates             13150533                       # Number of BTB updates (Count)
system.cpu.branchPred.BTBHits               592845827                       # Number of BTB hits (Count)
system.cpu.branchPred.BTBHitRatio            0.962125                       # BTB Hit Ratio (Ratio)
system.cpu.branchPred.BTBMispredicted           11556                       # Number BTB mispredictions. No target found or target wrong (Count)
system.cpu.branchPred.indirectLookups         1654195                       # Number of indirect predictor lookups. (Count)
system.cpu.branchPred.indirectHits            1605659                       # Number of indirect target hits. (Count)
system.cpu.branchPred.indirectMisses            48536                       # Number of indirect misses. (Count)
system.cpu.branchPred.indirectMispredicted            0                       # Number of mispredicted indirect branches. (Count)
system.cpu.branchPred.btb.lookups::NoBranch         8013      0.00%      0.00% # Number of BTB lookups (Count)
system.cpu.branchPred.btb.lookups::Return      3874492      0.63%      0.63% # Number of BTB lookups (Count)
system.cpu.branchPred.btb.lookups::CallDirect      3512508      0.57%      1.20% # Number of BTB lookups (Count)
system.cpu.branchPred.btb.lookups::CallIndirect         4206      0.00%      1.20% # Number of BTB lookups (Count)
system.cpu.branchPred.btb.lookups::DirectCond    567865632     92.16%     93.36% # Number of BTB lookups (Count)
system.cpu.branchPred.btb.lookups::DirectUncond     39269110      6.37%     99.73% # Number of BTB lookups (Count)
system.cpu.branchPred.btb.lookups::IndirectCond            0      0.00%     99.73% # Number of BTB lookups (Count)
system.cpu.branchPred.btb.lookups::IndirectUncond      1649989      0.27%    100.00% # Number of BTB lookups (Count)
system.cpu.branchPred.btb.lookups::total    616183950                       # Number of BTB lookups (Count)
system.cpu.branchPred.btb.misses::NoBranch          364      0.00%      0.00% # Number of BTB misses (Count)
system.cpu.branchPred.btb.misses::Return      3874486     16.60%     16.60% # Number of BTB misses (Count)
system.cpu.branchPred.btb.misses::CallDirect         5483      0.02%     16.63% # Number of BTB misses (Count)
system.cpu.branchPred.btb.misses::CallIndirect         4206      0.02%     16.64% # Number of BTB misses (Count)
system.cpu.branchPred.btb.misses::DirectCond     17800086     76.27%     92.92% # Number of BTB misses (Count)
system.cpu.branchPred.btb.misses::DirectUncond         3509      0.02%     92.93% # Number of BTB misses (Count)
system.cpu.branchPred.btb.misses::IndirectCond            0      0.00%     92.93% # Number of BTB misses (Count)
system.cpu.branchPred.btb.misses::IndirectUncond      1649989      7.07%    100.00% # Number of BTB misses (Count)
system.cpu.branchPred.btb.misses::total      23338123                       # Number of BTB misses (Count)
system.cpu.branchPred.btb.updates::NoBranch            0      0.00%      0.00% # Number of BTB updates (Count)
system.cpu.branchPred.btb.updates::Return            0      0.00%      0.00% # Number of BTB updates (Count)
system.cpu.branchPred.btb.updates::CallDirect         4251      0.03%      0.03% # Number of BTB updates (Count)
system.cpu.branchPred.btb.updates::CallIndirect            0      0.00%      0.03% # Number of BTB updates (Count)
system.cpu.branchPred.btb.updates::DirectCond     13143161     99.94%     99.98% # Number of BTB updates (Count)
system.cpu.branchPred.btb.updates::DirectUncond         3121      0.02%    100.00% # Number of BTB updates (Count)
system.cpu.branchPred.btb.updates::IndirectCond            0      0.00%    100.00% # Number of BTB updates (Count)
system.cpu.branchPred.btb.updates::IndirectUncond            0      0.00%    100.00% # Number of BTB updates (Count)
system.cpu.branchPred.btb.updates::total     13150533                       # Number of BTB updates (Count)
system.cpu.branchPred.btb.mispredict::NoBranch            0      0.00%      0.00% # Number of BTB mispredictions. No target found or target wrong. (Count)
system.cpu.branchPred.btb.mispredict::Return            0      0.00%      0.00% # Number of BTB mispredictions. No target found or target wrong. (Count)
system.cpu.branchPred.btb.mispredict::CallDirect         4251      0.03%      0.03% # Number of BTB mispredictions. No target found or target wrong. (Count)
system.cpu.branchPred.btb.mispredict::CallIndirect            0      0.00%      0.03% # Number of BTB mispredictions. No target found or target wrong. (Count)
system.cpu.branchPred.btb.mispredict::DirectCond     13143161     99.94%     99.98% # Number of BTB mispredictions. No target found or target wrong. (Count)
system.cpu.branchPred.btb.mispredict::DirectUncond         3121      0.02%    100.00% # Number of BTB mispredictions. No target found or target wrong. (Count)
system.cpu.branchPred.btb.mispredict::IndirectCond            0      0.00%    100.00% # Number of BTB mispredictions. No target found or target wrong. (Count)
system.cpu.branchPred.btb.mispredict::IndirectUncond            0      0.00%    100.00% # Number of BTB mispredictions. No target found or target wrong. (Count)
system.cpu.branchPred.btb.mispredict::total     13150533                       # Number of BTB mispredictions. No target found or target wrong. (Count)
system.cpu.branchPred.btb.power_state.pwrStateResidencyTicks::UNDEFINED 2113312397000                       # Cumulative time (in ticks) in various power states (Tick)
system.cpu.branchPred.indirectBranchPred.lookups      1654195                       # Number of lookups (Count)
system.cpu.branchPred.indirectBranchPred.hits      1605659                       # Number of hits of a tag (Count)
system.cpu.branchPred.indirectBranchPred.misses        48536                       # Number of misses (Count)
system.cpu.branchPred.indirectBranchPred.targetRecords        55214                       # Number of targets that where recorded/installed in the cache (Count)
system.cpu.branchPred.indirectBranchPred.indirectRecords      1709409                       # Number of indirect branches/calls recorded in the indirect hist (Count)
system.cpu.branchPred.indirectBranchPred.speculativeOverflows            1                       # Number of times more than the allowed capacity for speculative branches/calls where in flight and destroy the path history (Count)
system.cpu.branchPred.ras.pushes              4236095                       # Number of times a PC was pushed onto the RAS (Count)
system.cpu.branchPred.ras.pops                4236090                       # Number of times a PC was poped from the RAS (Count)
system.cpu.branchPred.ras.squashes            1080979                       # Number of times the stack operation was squashed due to wrong speculation. (Count)
system.cpu.branchPred.ras.used                3155110                       # Number of times the RAS is the provider (Count)
system.cpu.branchPred.ras.correct             3154147                       # Number of times the RAS is the provider and the prediction is correct (Count)
system.cpu.branchPred.ras.incorrect               963                       # Number of times the RAS is the provider and the prediction is wrong (Count)
system.cpu.branchPred.tage.longestMatchProviderCorrect    127707769                       # Number of times TAGE Longest Match is the provider and the prediction is correct (Count)
system.cpu.branchPred.tage.altMatchProviderCorrect      6560931                       # Number of times TAGE Alt Match is the provider and the prediction is correct (Count)
system.cpu.branchPred.tage.bimodalAltMatchProviderCorrect      2232709                       # Number of times TAGE Alt Match is the bimodal and it is the provider and the prediction is correct (Count)
system.cpu.branchPred.tage.bimodalProviderCorrect     89650946                       # Number of times there are no hits on the TAGE tables and the bimodal prediction is correct (Count)
system.cpu.branchPred.tage.longestMatchProviderWrong     25368529                       # Number of times TAGE Longest Match is the provider and the prediction is wrong (Count)
system.cpu.branchPred.tage.altMatchProviderWrong      3966796                       # Number of times TAGE Alt Match is the provider and the prediction is wrong (Count)
system.cpu.branchPred.tage.bimodalAltMatchProviderWrong      1801667                       # Number of times TAGE Alt Match is the bimodal and it is the provider and the prediction is wrong (Count)
system.cpu.branchPred.tage.bimodalProviderWrong      1565957                       # Number of times there are no hits on the TAGE tables and the bimodal prediction is wrong (Count)
system.cpu.branchPred.tage.altMatchProviderWouldHaveHit      8160272                       # Number of times TAGE Longest Match is the provider, the prediction is wrong and Alt Match prediction was correct (Count)
system.cpu.branchPred.tage.longestMatchProviderWouldHaveHit      3066507                       # Number of times TAGE Alt Match is the provider, the prediction is wrong and Longest Match prediction was correct (Count)
system.cpu.branchPred.tage.longestMatchProvider::0            0                       # TAGE provider for longest match (Count)
system.cpu.branchPred.tage.longestMatchProvider::1     44916341                       # TAGE provider for longest match (Count)
system.cpu.branchPred.tage.longestMatchProvider::2     69709819                       # TAGE provider for longest match (Count)
system.cpu.branchPred.tage.longestMatchProvider::3     22089633                       # TAGE provider for longest match (Count)
system.cpu.branchPred.tage.longestMatchProvider::4      5875627                       # TAGE provider for longest match (Count)
system.cpu.branchPred.tage.longestMatchProvider::5      2414194                       # TAGE provider for longest match (Count)
system.cpu.branchPred.tage.longestMatchProvider::6      1289313                       # TAGE provider for longest match (Count)
system.cpu.branchPred.tage.longestMatchProvider::7     17309098                       # TAGE provider for longest match (Count)
system.cpu.branchPred.tage.altMatchProvider::0     68597396                       # TAGE provider for alt match (Count)
system.cpu.branchPred.tage.altMatchProvider::1     57422430                       # TAGE provider for alt match (Count)
system.cpu.branchPred.tage.altMatchProvider::2     16214225                       # TAGE provider for alt match (Count)
system.cpu.branchPred.tage.altMatchProvider::3      4290581                       # TAGE provider for alt match (Count)
system.cpu.branchPred.tage.altMatchProvider::4      4388591                       # TAGE provider for alt match (Count)
system.cpu.branchPred.tage.altMatchProvider::5      5211457                       # TAGE provider for alt match (Count)
system.cpu.branchPred.tage.altMatchProvider::6      7479345                       # TAGE provider for alt match (Count)
system.cpu.branchPred.tage.altMatchProvider::7            0                       # TAGE provider for alt match (Count)
system.cpu.commit.commitSquashedInsts      1400571443                       # The number of squashed insts skipped by commit (Count)
system.cpu.commit.commitNonSpecStalls          315557                       # The number of times commit has been forced to stall to communicate backwards (Count)
system.cpu.commit.branchMispredicts          33131773                       # The number of times a branch was mispredicted (Count)
system.cpu.commit.numCommittedDist::samples   1920140054                       # Number of insts commited each cycle (Count)
system.cpu.commit.numCommittedDist::mean     1.433213                       # Number of insts commited each cycle (Count)
system.cpu.commit.numCommittedDist::stdev     2.335897                       # Number of insts commited each cycle (Count)
system.cpu.commit.numCommittedDist::underflows            0      0.00%      0.00% # Number of insts commited each cycle (Count)
system.cpu.commit.numCommittedDist::0      1110184537     57.82%     57.82% # Number of insts commited each cycle (Count)
system.cpu.commit.numCommittedDist::1       303819515     15.82%     73.64% # Number of insts commited each cycle (Count)
system.cpu.commit.numCommittedDist::2        37809218      1.97%     75.61% # Number of insts commited each cycle (Count)
system.cpu.commit.numCommittedDist::3       175005409      9.11%     84.72% # Number of insts commited each cycle (Count)
system.cpu.commit.numCommittedDist::4        64354852      3.35%     88.08% # Number of insts commited each cycle (Count)
system.cpu.commit.numCommittedDist::5        32083504      1.67%     89.75% # Number of insts commited each cycle (Count)
system.cpu.commit.numCommittedDist::6        69820470      3.64%     93.38% # Number of insts commited each cycle (Count)
system.cpu.commit.numCommittedDist::7         5744629      0.30%     93.68% # Number of insts commited each cycle (Count)
system.cpu.commit.numCommittedDist::8       121317920      6.32%    100.00% # Number of insts commited each cycle (Count)
system.cpu.commit.numCommittedDist::overflows            0      0.00%    100.00% # Number of insts commited each cycle (Count)
system.cpu.commit.numCommittedDist::min_value            0                       # Number of insts commited each cycle (Count)
system.cpu.commit.numCommittedDist::max_value            8                       # Number of insts commited each cycle (Count)
system.cpu.commit.numCommittedDist::total   1920140054                       # Number of insts commited each cycle (Count)
system.cpu.commit.amos                              0                       # Number of atomic instructions committed (Count)
system.cpu.commit.membars                      209446                       # Number of memory barriers committed (Count)
system.cpu.commit.functionCalls               3155115                       # Number of function calls committed. (Count)
system.cpu.commit.committedInstType_0::No_OpClass     19822505      0.72%      0.72% # Class of committed instruction (Count)
system.cpu.commit.committedInstType_0::IntAlu   1972209284     71.67%     72.39% # Class of committed instruction (Count)
system.cpu.commit.committedInstType_0::IntMult       816355      0.03%     72.42% # Class of committed instruction (Count)
system.cpu.commit.committedInstType_0::IntDiv        43526      0.00%     72.42% # Class of committed instruction (Count)
system.cpu.commit.committedInstType_0::FloatAdd    131862348      4.79%     77.21% # Class of committed instruction (Count)
system.cpu.commit.committedInstType_0::FloatCmp            0      0.00%     77.21% # Class of committed instruction (Count)
system.cpu.commit.committedInstType_0::FloatCvt         1472      0.00%     77.21% # Class of committed instruction (Count)
system.cpu.commit.committedInstType_0::FloatMult            0      0.00%     77.21% # Class of committed instruction (Count)
system.cpu.commit.committedInstType_0::FloatMultAcc            0      0.00%     77.21% # Class of committed instruction (Count)
system.cpu.commit.committedInstType_0::FloatDiv            0      0.00%     77.21% # Class of committed instruction (Count)
system.cpu.commit.committedInstType_0::FloatMisc            0      0.00%     77.21% # Class of committed instruction (Count)
system.cpu.commit.committedInstType_0::FloatSqrt            0      0.00%     77.21% # Class of committed instruction (Count)
system.cpu.commit.committedInstType_0::SimdAdd         6894      0.00%     77.21% # Class of committed instruction (Count)
system.cpu.commit.committedInstType_0::SimdAddAcc            0      0.00%     77.21% # Class of committed instruction (Count)
system.cpu.commit.committedInstType_0::SimdAlu       998025      0.04%     77.25% # Class of committed instruction (Count)
system.cpu.commit.committedInstType_0::SimdCmp            6      0.00%     77.25% # Class of committed instruction (Count)
system.cpu.commit.committedInstType_0::SimdCvt        60928      0.00%     77.25% # Class of committed instruction (Count)
system.cpu.commit.committedInstType_0::SimdMisc      8794471      0.32%     77.57% # Class of committed instruction (Count)
system.cpu.commit.committedInstType_0::SimdMult            0      0.00%     77.57% # Class of committed instruction (Count)
system.cpu.commit.committedInstType_0::SimdMultAcc            0      0.00%     77.57% # Class of committed instruction (Count)
system.cpu.commit.committedInstType_0::SimdMatMultAcc            0      0.00%     77.57% # Class of committed instruction (Count)
system.cpu.commit.committedInstType_0::SimdShift         1859      0.00%     77.57% # Class of committed instruction (Count)
system.cpu.commit.committedInstType_0::SimdShiftAcc            0      0.00%     77.57% # Class of committed instruction (Count)
system.cpu.commit.committedInstType_0::SimdDiv            0      0.00%     77.57% # Class of committed instruction (Count)
system.cpu.commit.committedInstType_0::SimdSqrt            0      0.00%     77.57% # Class of committed instruction (Count)
system.cpu.commit.committedInstType_0::SimdFloatAdd          286      0.00%     77.57% # Class of committed instruction (Count)
system.cpu.commit.committedInstType_0::SimdFloatAlu            0      0.00%     77.57% # Class of committed instruction (Count)
system.cpu.commit.committedInstType_0::SimdFloatCmp            0      0.00%     77.57% # Class of committed instruction (Count)
system.cpu.commit.committedInstType_0::SimdFloatCvt    162622141      5.91%     83.48% # Class of committed instruction (Count)
system.cpu.commit.committedInstType_0::SimdFloatDiv       100270      0.00%     83.48% # Class of committed instruction (Count)
system.cpu.commit.committedInstType_0::SimdFloatMisc            0      0.00%     83.48% # Class of committed instruction (Count)
system.cpu.commit.committedInstType_0::SimdFloatMult            8      0.00%     83.48% # Class of committed instruction (Count)
system.cpu.commit.committedInstType_0::SimdFloatMultAcc            0      0.00%     83.48% # Class of committed instruction (Count)
system.cpu.commit.committedInstType_0::SimdFloatMatMultAcc            0      0.00%     83.48% # Class of committed instruction (Count)
system.cpu.commit.committedInstType_0::SimdFloatSqrt            0      0.00%     83.48% # Class of committed instruction (Count)
system.cpu.commit.committedInstType_0::SimdReduceAdd            0      0.00%     83.48% # Class of committed instruction (Count)
system.cpu.commit.committedInstType_0::SimdReduceAlu            0      0.00%     83.48% # Class of committed instruction (Count)
system.cpu.commit.committedInstType_0::SimdReduceCmp            0      0.00%     83.48% # Class of committed instruction (Count)
system.cpu.commit.committedInstType_0::SimdFloatReduceAdd            0      0.00%     83.48% # Class of committed instruction (Count)
system.cpu.commit.committedInstType_0::SimdFloatReduceCmp            0      0.00%     83.48% # Class of committed instruction (Count)
system.cpu.commit.committedInstType_0::SimdAes            0      0.00%     83.48% # Class of committed instruction (Count)
system.cpu.commit.committedInstType_0::SimdAesMix            0      0.00%     83.48% # Class of committed instruction (Count)
system.cpu.commit.committedInstType_0::SimdSha1Hash            0      0.00%     83.48% # Class of committed instruction (Count)
system.cpu.commit.committedInstType_0::SimdSha1Hash2            0      0.00%     83.48% # Class of committed instruction (Count)
system.cpu.commit.committedInstType_0::SimdSha256Hash            0      0.00%     83.48% # Class of committed instruction (Count)
system.cpu.commit.committedInstType_0::SimdSha256Hash2            0      0.00%     83.48% # Class of committed instruction (Count)
system.cpu.commit.committedInstType_0::SimdShaSigma2            0      0.00%     83.48% # Class of committed instruction (Count)
system.cpu.commit.committedInstType_0::SimdShaSigma3            0      0.00%     83.48% # Class of committed instruction (Count)
system.cpu.commit.committedInstType_0::SimdPredAlu            0      0.00%     83.48% # Class of committed instruction (Count)
system.cpu.commit.committedInstType_0::Matrix            0      0.00%     83.48% # Class of committed instruction (Count)
system.cpu.commit.committedInstType_0::MatrixMov            0      0.00%     83.48% # Class of committed instruction (Count)
system.cpu.commit.committedInstType_0::MatrixOP            0      0.00%     83.48% # Class of committed instruction (Count)
system.cpu.commit.committedInstType_0::MemRead    114360240      4.16%     87.64% # Class of committed instruction (Count)
system.cpu.commit.committedInstType_0::MemWrite     54767518      1.99%     89.63% # Class of committed instruction (Count)
system.cpu.commit.committedInstType_0::FloatMemRead    210482171      7.65%     97.27% # Class of committed instruction (Count)
system.cpu.commit.committedInstType_0::FloatMemWrite     75019382      2.73%    100.00% # Class of committed instruction (Count)
system.cpu.commit.committedInstType_0::IprAccess            0      0.00%    100.00% # Class of committed instruction (Count)
system.cpu.commit.committedInstType_0::InstPrefetch            0      0.00%    100.00% # Class of committed instruction (Count)
system.cpu.commit.committedInstType_0::SimdUnitStrideLoad            0      0.00%    100.00% # Class of committed instruction (Count)
system.cpu.commit.committedInstType_0::SimdUnitStrideStore            0      0.00%    100.00% # Class of committed instruction (Count)
system.cpu.commit.committedInstType_0::SimdUnitStrideMaskLoad            0      0.00%    100.00% # Class of committed instruction (Count)
system.cpu.commit.committedInstType_0::SimdUnitStrideMaskStore            0      0.00%    100.00% # Class of committed instruction (Count)
system.cpu.commit.committedInstType_0::SimdStridedLoad            0      0.00%    100.00% # Class of committed instruction (Count)
system.cpu.commit.committedInstType_0::SimdStridedStore            0      0.00%    100.00% # Class of committed instruction (Count)
system.cpu.commit.committedInstType_0::SimdIndexedLoad            0      0.00%    100.00% # Class of committed instruction (Count)
system.cpu.commit.committedInstType_0::SimdIndexedStore            0      0.00%    100.00% # Class of committed instruction (Count)
system.cpu.commit.committedInstType_0::SimdWholeRegisterLoad            0      0.00%    100.00% # Class of committed instruction (Count)
system.cpu.commit.committedInstType_0::SimdWholeRegisterStore            0      0.00%    100.00% # Class of committed instruction (Count)
system.cpu.commit.committedInstType_0::SimdUnitStrideFaultOnlyFirstLoad            0      0.00%    100.00% # Class of committed instruction (Count)
system.cpu.commit.committedInstType_0::SimdUnitStrideSegmentedLoad            0      0.00%    100.00% # Class of committed instruction (Count)
system.cpu.commit.committedInstType_0::SimdUnitStrideSegmentedStore            0      0.00%    100.00% # Class of committed instruction (Count)
system.cpu.commit.committedInstType_0::SimdExt            0      0.00%    100.00% # Class of committed instruction (Count)
system.cpu.commit.committedInstType_0::SimdFloatExt            0      0.00%    100.00% # Class of committed instruction (Count)
system.cpu.commit.committedInstType_0::SimdConfig            0      0.00%    100.00% # Class of committed instruction (Count)
system.cpu.commit.committedInstType_0::total   2751969689                       # Class of committed instruction (Count)
system.cpu.commit.commitEligibleSamples     121317920                       # number cycles where commit BW limit reached (Cycle)
system.cpu.commitStats0.numInsts           1566797586                       # Number of instructions committed (thread level) (Count)
system.cpu.commitStats0.numOps             2751969689                       # Number of ops (including micro ops) committed (thread level) (Count)
system.cpu.commitStats0.numInstsNotNOP     1566797586                       # Number of instructions committed excluding NOPs or prefetches (Count)
system.cpu.commitStats0.numOpsNotNOP       2751969689                       # Number of Ops (including micro ops) Simulated (Count)
system.cpu.commitStats0.cpi                  1.348810                       # CPI: cycles per instruction (thread level) ((Cycle/Count))
system.cpu.commitStats0.ipc                  0.741394                       # IPC: instructions per cycle (thread level) ((Count/Cycle))
system.cpu.commitStats0.numMemRefs          454629311                       # Number of memory references committed (Count)
system.cpu.commitStats0.numFpInsts          597054638                       # Number of float instructions (Count)
system.cpu.commitStats0.numIntInsts        2415808821                       # Number of integer instructions (Count)
system.cpu.commitStats0.numLoadInsts        324842411                       # Number of load instructions (Count)
system.cpu.commitStats0.numStoreInsts       129786900                       # Number of store instructions (Count)
system.cpu.commitStats0.numVecInsts                 0                       # Number of vector instructions (Count)
system.cpu.commitStats0.committedInstType::No_OpClass     19822505      0.72%      0.72% # Class of committed instruction. (Count)
system.cpu.commitStats0.committedInstType::IntAlu   1972209284     71.67%     72.39% # Class of committed instruction. (Count)
system.cpu.commitStats0.committedInstType::IntMult       816355      0.03%     72.42% # Class of committed instruction. (Count)
system.cpu.commitStats0.committedInstType::IntDiv        43526      0.00%     72.42% # Class of committed instruction. (Count)
system.cpu.commitStats0.committedInstType::FloatAdd    131862348      4.79%     77.21% # Class of committed instruction. (Count)
system.cpu.commitStats0.committedInstType::FloatCmp            0      0.00%     77.21% # Class of committed instruction. (Count)
system.cpu.commitStats0.committedInstType::FloatCvt         1472      0.00%     77.21% # Class of committed instruction. (Count)
system.cpu.commitStats0.committedInstType::FloatMult            0      0.00%     77.21% # Class of committed instruction. (Count)
system.cpu.commitStats0.committedInstType::FloatMultAcc            0      0.00%     77.21% # Class of committed instruction. (Count)
system.cpu.commitStats0.committedInstType::FloatDiv            0      0.00%     77.21% # Class of committed instruction. (Count)
system.cpu.commitStats0.committedInstType::FloatMisc            0      0.00%     77.21% # Class of committed instruction. (Count)
system.cpu.commitStats0.committedInstType::FloatSqrt            0      0.00%     77.21% # Class of committed instruction. (Count)
system.cpu.commitStats0.committedInstType::SimdAdd         6894      0.00%     77.21% # Class of committed instruction. (Count)
system.cpu.commitStats0.committedInstType::SimdAddAcc            0      0.00%     77.21% # Class of committed instruction. (Count)
system.cpu.commitStats0.committedInstType::SimdAlu       998025      0.04%     77.25% # Class of committed instruction. (Count)
system.cpu.commitStats0.committedInstType::SimdCmp            6      0.00%     77.25% # Class of committed instruction. (Count)
system.cpu.commitStats0.committedInstType::SimdCvt        60928      0.00%     77.25% # Class of committed instruction. (Count)
system.cpu.commitStats0.committedInstType::SimdMisc      8794471      0.32%     77.57% # Class of committed instruction. (Count)
system.cpu.commitStats0.committedInstType::SimdMult            0      0.00%     77.57% # Class of committed instruction. (Count)
system.cpu.commitStats0.committedInstType::SimdMultAcc            0      0.00%     77.57% # Class of committed instruction. (Count)
system.cpu.commitStats0.committedInstType::SimdMatMultAcc            0      0.00%     77.57% # Class of committed instruction. (Count)
system.cpu.commitStats0.committedInstType::SimdShift         1859      0.00%     77.57% # Class of committed instruction. (Count)
system.cpu.commitStats0.committedInstType::SimdShiftAcc            0      0.00%     77.57% # Class of committed instruction. (Count)
system.cpu.commitStats0.committedInstType::SimdDiv            0      0.00%     77.57% # Class of committed instruction. (Count)
system.cpu.commitStats0.committedInstType::SimdSqrt            0      0.00%     77.57% # Class of committed instruction. (Count)
system.cpu.commitStats0.committedInstType::SimdFloatAdd          286      0.00%     77.57% # Class of committed instruction. (Count)
system.cpu.commitStats0.committedInstType::SimdFloatAlu            0      0.00%     77.57% # Class of committed instruction. (Count)
system.cpu.commitStats0.committedInstType::SimdFloatCmp            0      0.00%     77.57% # Class of committed instruction. (Count)
system.cpu.commitStats0.committedInstType::SimdFloatCvt    162622141      5.91%     83.48% # Class of committed instruction. (Count)
system.cpu.commitStats0.committedInstType::SimdFloatDiv       100270      0.00%     83.48% # Class of committed instruction. (Count)
system.cpu.commitStats0.committedInstType::SimdFloatMisc            0      0.00%     83.48% # Class of committed instruction. (Count)
system.cpu.commitStats0.committedInstType::SimdFloatMult            8      0.00%     83.48% # Class of committed instruction. (Count)
system.cpu.commitStats0.committedInstType::SimdFloatMultAcc            0      0.00%     83.48% # Class of committed instruction. (Count)
system.cpu.commitStats0.committedInstType::SimdFloatMatMultAcc            0      0.00%     83.48% # Class of committed instruction. (Count)
system.cpu.commitStats0.committedInstType::SimdFloatSqrt            0      0.00%     83.48% # Class of committed instruction. (Count)
system.cpu.commitStats0.committedInstType::SimdReduceAdd            0      0.00%     83.48% # Class of committed instruction. (Count)
system.cpu.commitStats0.committedInstType::SimdReduceAlu            0      0.00%     83.48% # Class of committed instruction. (Count)
system.cpu.commitStats0.committedInstType::SimdReduceCmp            0      0.00%     83.48% # Class of committed instruction. (Count)
system.cpu.commitStats0.committedInstType::SimdFloatReduceAdd            0      0.00%     83.48% # Class of committed instruction. (Count)
system.cpu.commitStats0.committedInstType::SimdFloatReduceCmp            0      0.00%     83.48% # Class of committed instruction. (Count)
system.cpu.commitStats0.committedInstType::SimdAes            0      0.00%     83.48% # Class of committed instruction. (Count)
system.cpu.commitStats0.committedInstType::SimdAesMix            0      0.00%     83.48% # Class of committed instruction. (Count)
system.cpu.commitStats0.committedInstType::SimdSha1Hash            0      0.00%     83.48% # Class of committed instruction. (Count)
system.cpu.commitStats0.committedInstType::SimdSha1Hash2            0      0.00%     83.48% # Class of committed instruction. (Count)
system.cpu.commitStats0.committedInstType::SimdSha256Hash            0      0.00%     83.48% # Class of committed instruction. (Count)
system.cpu.commitStats0.committedInstType::SimdSha256Hash2            0      0.00%     83.48% # Class of committed instruction. (Count)
system.cpu.commitStats0.committedInstType::SimdShaSigma2            0      0.00%     83.48% # Class of committed instruction. (Count)
system.cpu.commitStats0.committedInstType::SimdShaSigma3            0      0.00%     83.48% # Class of committed instruction. (Count)
system.cpu.commitStats0.committedInstType::SimdPredAlu            0      0.00%     83.48% # Class of committed instruction. (Count)
system.cpu.commitStats0.committedInstType::Matrix            0      0.00%     83.48% # Class of committed instruction. (Count)
system.cpu.commitStats0.committedInstType::MatrixMov            0      0.00%     83.48% # Class of committed instruction. (Count)
system.cpu.commitStats0.committedInstType::MatrixOP            0      0.00%     83.48% # Class of committed instruction. (Count)
system.cpu.commitStats0.committedInstType::MemRead    114360240      4.16%     87.64% # Class of committed instruction. (Count)
system.cpu.commitStats0.committedInstType::MemWrite     54767518      1.99%     89.63% # Class of committed instruction. (Count)
system.cpu.commitStats0.committedInstType::FloatMemRead    210482171      7.65%     97.27% # Class of committed instruction. (Count)
system.cpu.commitStats0.committedInstType::FloatMemWrite     75019382      2.73%    100.00% # Class of committed instruction. (Count)
system.cpu.commitStats0.committedInstType::IprAccess            0      0.00%    100.00% # Class of committed instruction. (Count)
system.cpu.commitStats0.committedInstType::InstPrefetch            0      0.00%    100.00% # Class of committed instruction. (Count)
system.cpu.commitStats0.committedInstType::SimdUnitStrideLoad            0      0.00%    100.00% # Class of committed instruction. (Count)
system.cpu.commitStats0.committedInstType::SimdUnitStrideStore            0      0.00%    100.00% # Class of committed instruction. (Count)
system.cpu.commitStats0.committedInstType::SimdUnitStrideMaskLoad            0      0.00%    100.00% # Class of committed instruction. (Count)
system.cpu.commitStats0.committedInstType::SimdUnitStrideMaskStore            0      0.00%    100.00% # Class of committed instruction. (Count)
system.cpu.commitStats0.committedInstType::SimdStridedLoad            0      0.00%    100.00% # Class of committed instruction. (Count)
system.cpu.commitStats0.committedInstType::SimdStridedStore            0      0.00%    100.00% # Class of committed instruction. (Count)
system.cpu.commitStats0.committedInstType::SimdIndexedLoad            0      0.00%    100.00% # Class of committed instruction. (Count)
system.cpu.commitStats0.committedInstType::SimdIndexedStore            0      0.00%    100.00% # Class of committed instruction. (Count)
system.cpu.commitStats0.committedInstType::SimdWholeRegisterLoad            0      0.00%    100.00% # Class of committed instruction. (Count)
system.cpu.commitStats0.committedInstType::SimdWholeRegisterStore            0      0.00%    100.00% # Class of committed instruction. (Count)
system.cpu.commitStats0.committedInstType::SimdUnitStrideFaultOnlyFirstLoad            0      0.00%    100.00% # Class of committed instruction. (Count)
system.cpu.commitStats0.committedInstType::SimdUnitStrideSegmentedLoad            0      0.00%    100.00% # Class of committed instruction. (Count)
system.cpu.commitStats0.committedInstType::SimdUnitStrideSegmentedStore            0      0.00%    100.00% # Class of committed instruction. (Count)
system.cpu.commitStats0.committedInstType::SimdExt            0      0.00%    100.00% # Class of committed instruction. (Count)
system.cpu.commitStats0.committedInstType::SimdFloatExt            0      0.00%    100.00% # Class of committed instruction. (Count)
system.cpu.commitStats0.committedInstType::SimdConfig            0      0.00%    100.00% # Class of committed instruction. (Count)
system.cpu.commitStats0.committedInstType::total   2751969689                       # Class of committed instruction. (Count)
system.cpu.commitStats0.committedControl::IsControl    282491347                       # Class of control type instructions committed (Count)
system.cpu.commitStats0.committedControl::IsDirectControl    277794947                       # Class of control type instructions committed (Count)
system.cpu.commitStats0.committedControl::IsIndirectControl      4696086                       # Class of control type instructions committed (Count)
system.cpu.commitStats0.committedControl::IsCondControl    258854990                       # Class of control type instructions committed (Count)
system.cpu.commitStats0.committedControl::IsUncondControl     23636043                       # Class of control type instructions committed (Count)
system.cpu.commitStats0.committedControl::IsCall      3155115                       # Class of control type instructions committed (Count)
system.cpu.commitStats0.committedControl::IsReturn      3155110                       # Class of control type instructions committed (Count)
system.cpu.decode.idleCycles                209844676                       # Number of cycles decode is idle (Cycle)
system.cpu.decode.blockedCycles            1204388719                       # Number of cycles decode is blocked (Cycle)
[...]
system.mem_ctrl.dram.bytesWritten::total      3300288                       # Number of bytes written to this memory (Byte)
system.mem_ctrl.dram.numReads::cpu.inst          2438                       # Number of read requests responded to by this memory (Count)
system.mem_ctrl.dram.numReads::cpu.data         77689                       # Number of read requests responded to by this memory (Count)
system.mem_ctrl.dram.numReads::total            80127                       # Number of read requests responded to by this memory (Count)
system.mem_ctrl.dram.numWrites::writebacks        51567                       # Number of write requests responded to by this memory (Count)
system.mem_ctrl.dram.numWrites::total           51567                       # Number of write requests responded to by this memory (Count)
system.mem_ctrl.dram.bwRead::cpu.inst        11088500                       # Total read bandwidth from this memory ((Byte/Second))
system.mem_ctrl.dram.bwRead::cpu.data       353344728                       # Total read bandwidth from this memory ((Byte/Second))
system.mem_ctrl.dram.bwRead::total          364433228                       # Total read bandwidth from this memory ((Byte/Second))
system.mem_ctrl.dram.bwInstRead::cpu.inst     11088500                       # Instruction read bandwidth from this memory ((Byte/Second))
system.mem_ctrl.dram.bwInstRead::total       11088500                       # Instruction read bandwidth from this memory ((Byte/Second))
system.mem_ctrl.dram.bwWrite::writebacks    234536776                       # Write bandwidth from this memory ((Byte/Second))
system.mem_ctrl.dram.bwWrite::total         234536776                       # Write bandwidth from this memory ((Byte/Second))
system.mem_ctrl.dram.bwTotal::writebacks    234536776                       # Total bandwidth to/from this memory ((Byte/Second))
system.mem_ctrl.dram.bwTotal::cpu.inst       11088500                       # Total bandwidth to/from this memory ((Byte/Second))
system.mem_ctrl.dram.bwTotal::cpu.data      353344728                       # Total bandwidth to/from this memory ((Byte/Second))
system.mem_ctrl.dram.bwTotal::total         598970004                       # Total bandwidth to/from this memory ((Byte/Second))
system.mem_ctrl.dram.readBursts                 80008                       # Number of DRAM read bursts (Count)
system.mem_ctrl.dram.writeBursts                51572                       # Number of DRAM write bursts (Count)
system.mem_ctrl.dram.perBankRdBursts::0          4792                       # Per bank write bursts (Count)
system.mem_ctrl.dram.perBankRdBursts::1          4699                       # Per bank write bursts (Count)
system.mem_ctrl.dram.perBankRdBursts::2          4802                       # Per bank write bursts (Count)
system.mem_ctrl.dram.perBankRdBursts::3          4737                       # Per bank write bursts (Count)
system.mem_ctrl.dram.perBankRdBursts::4          4867                       # Per bank write bursts (Count)
system.mem_ctrl.dram.perBankRdBursts::5          5122                       # Per bank write bursts (Count)
system.mem_ctrl.dram.perBankRdBursts::6          5439                       # Per bank write bursts (Count)
system.mem_ctrl.dram.perBankRdBursts::7          5696                       # Per bank write bursts (Count)
system.mem_ctrl.dram.perBankRdBursts::8          4845                       # Per bank write bursts (Count)
system.mem_ctrl.dram.perBankRdBursts::9          4938                       # Per bank write bursts (Count)
system.mem_ctrl.dram.perBankRdBursts::10         4939                       # Per bank write bursts (Count)
system.mem_ctrl.dram.perBankRdBursts::11         5156                       # Per bank write bursts (Count)
system.mem_ctrl.dram.perBankRdBursts::12         5135                       # Per bank write bursts (Count)
system.mem_ctrl.dram.perBankRdBursts::13         5035                       # Per bank write bursts (Count)
system.mem_ctrl.dram.perBankRdBursts::14         4823                       # Per bank write bursts (Count)
system.mem_ctrl.dram.perBankRdBursts::15         4983                       # Per bank write bursts (Count)
system.mem_ctrl.dram.perBankWrBursts::0          3180                       # Per bank write bursts (Count)
system.mem_ctrl.dram.perBankWrBursts::1          3076                       # Per bank write bursts (Count)
system.mem_ctrl.dram.perBankWrBursts::2          3111                       # Per bank write bursts (Count)
system.mem_ctrl.dram.perBankWrBursts::3          3082                       # Per bank write bursts (Count)
system.mem_ctrl.dram.perBankWrBursts::4          3074                       # Per bank write bursts (Count)
system.mem_ctrl.dram.perBankWrBursts::5          3188                       # Per bank write bursts (Count)
system.mem_ctrl.dram.perBankWrBursts::6          3132                       # Per bank write bursts (Count)
system.mem_ctrl.dram.perBankWrBursts::7          3926                       # Per bank write bursts (Count)
system.mem_ctrl.dram.perBankWrBursts::8          3159                       # Per bank write bursts (Count)
system.mem_ctrl.dram.perBankWrBursts::9          3077                       # Per bank write bursts (Count)
system.mem_ctrl.dram.perBankWrBursts::10         3287                       # Per bank write bursts (Count)
system.mem_ctrl.dram.perBankWrBursts::11         3228                       # Per bank write bursts (Count)
system.mem_ctrl.dram.perBankWrBursts::12         3417                       # Per bank write bursts (Count)
system.mem_ctrl.dram.perBankWrBursts::13         3207                       # Per bank write bursts (Count)
system.mem_ctrl.dram.perBankWrBursts::14         3225                       # Per bank write bursts (Count)
system.mem_ctrl.dram.perBankWrBursts::15         3203                       # Per bank write bursts (Count)
system.mem_ctrl.dram.totQLat                646598750                       # Total ticks spent queuing (Tick)
system.mem_ctrl.dram.totBusLat              400040000                       # Total ticks spent in databus transfers (Tick)
system.mem_ctrl.dram.totMemAccLat          2146748750                       # Total ticks spent from burst creation until serviced by the DRAM (Tick)
system.mem_ctrl.dram.avgQLat                  8081.68                       # Average queueing delay per DRAM burst ((Tick/Count))
system.mem_ctrl.dram.avgBusLat                5000.00                       # Average bus latency per DRAM burst ((Tick/Count))
system.mem_ctrl.dram.avgMemAccLat            26831.68                       # Average memory access latency per DRAM burst ((Tick/Count))
system.mem_ctrl.dram.readRowHits                69681                       # Number of row buffer hits during reads (Count)
system.mem_ctrl.dram.writeRowHits               46093                       # Number of row buffer hits during writes (Count)
system.mem_ctrl.dram.readRowHitRate             87.09                       # Row buffer hit rate for reads (Ratio)
system.mem_ctrl.dram.writeRowHitRate            89.38                       # Row buffer hit rate for writes (Ratio)
system.mem_ctrl.dram.bytesPerActivate::samples        15807                       # Bytes accessed per row activation (Byte)
system.mem_ctrl.dram.bytesPerActivate::mean   532.689568                       # Bytes accessed per row activation (Byte)
system.mem_ctrl.dram.bytesPerActivate::gmean   337.089653                       # Bytes accessed per row activation (Byte)
system.mem_ctrl.dram.bytesPerActivate::stdev   395.497393                       # Bytes accessed per row activation (Byte)
system.mem_ctrl.dram.bytesPerActivate::0-127         2968     18.78%     18.78% # Bytes accessed per row activation (Byte)
system.mem_ctrl.dram.bytesPerActivate::128-255         3122     19.75%     38.53% # Bytes accessed per row activation (Byte)
system.mem_ctrl.dram.bytesPerActivate::256-383          992      6.28%     44.80% # Bytes accessed per row activation (Byte)
system.mem_ctrl.dram.bytesPerActivate::384-511          661      4.18%     48.98% # Bytes accessed per row activation (Byte)
system.mem_ctrl.dram.bytesPerActivate::512-639          624      3.95%     52.93% # Bytes accessed per row activation (Byte)
system.mem_ctrl.dram.bytesPerActivate::640-767          810      5.12%     58.06% # Bytes accessed per row activation (Byte)
system.mem_ctrl.dram.bytesPerActivate::768-895         1365      8.64%     66.69% # Bytes accessed per row activation (Byte)
system.mem_ctrl.dram.bytesPerActivate::896-1023         1462      9.25%     75.94% # Bytes accessed per row activation (Byte)
system.mem_ctrl.dram.bytesPerActivate::1024-1151         3803     24.06%    100.00% # Bytes accessed per row activation (Byte)
system.mem_ctrl.dram.bytesPerActivate::total        15807                       # Bytes accessed per row activation (Byte)
system.mem_ctrl.dram.dramBytesRead            5120512                       # Total bytes read (Byte)
system.mem_ctrl.dram.dramBytesWritten         3300608                       # Total bytes written (Byte)
system.mem_ctrl.dram.avgRdBW               363.891993                       # Average DRAM read bandwidth in MiBytes/s ((Byte/Second))
system.mem_ctrl.dram.avgWrBW               234.559517                       # Average DRAM write bandwidth in MiBytes/s ((Byte/Second))
system.mem_ctrl.dram.peakBW                  12800.00                       # Theoretical peak bandwidth in MiByte/s ((Byte/Second))
system.mem_ctrl.dram.busUtil                     4.68                       # Data bus utilization in percentage (Ratio)
system.mem_ctrl.dram.busUtilRead                 2.84                       # Data bus utilization in percentage for reads (Ratio)
system.mem_ctrl.dram.busUtilWrite                1.83                       # Data bus utilization in percentage for writes (Ratio)
system.mem_ctrl.dram.pageHitRate                87.99                       # Row buffer hit rate, read and write combined (Ratio)
system.mem_ctrl.dram.power_state.pwrStateResidencyTicks::UNDEFINED  14071516000                       # Cumulative time (in ticks) in various power states (Tick)
system.mem_ctrl.dram.rank0.actEnergy         57548400                       # Energy for activate commands per rank (pJ) (Joule)
system.mem_ctrl.dram.rank0.preEnergy         30595290                       # Energy for precharge commands per rank (pJ) (Joule)
system.mem_ctrl.dram.rank0.readEnergy       286699560                       # Energy for read commands per rank (pJ) (Joule)
system.mem_ctrl.dram.rank0.writeEnergy      134514180                       # Energy for write commands per rank (pJ) (Joule)
system.mem_ctrl.dram.rank0.refreshEnergy 1110654480.000000                       # Energy for refresh commands per rank (pJ) (Joule)
system.mem_ctrl.dram.rank0.actBackEnergy   5269498380                       # Energy for active background per rank (pJ) (Joule)
system.mem_ctrl.dram.rank0.preBackEnergy    965989920                       # Energy for precharge background per rank (pJ) (Joule)
system.mem_ctrl.dram.rank0.actPowerDownEnergy            0                       # Energy for active power-down per rank (pJ) (Joule)
system.mem_ctrl.dram.rank0.prePowerDownEnergy            0                       # Energy for precharge power-down per rank (pJ) (Joule)
system.mem_ctrl.dram.rank0.selfRefreshEnergy            0                       # Energy for self refresh per rank (pJ) (Joule)
system.mem_ctrl.dram.rank0.totalEnergy     7855500210                       # Total energy per rank (pJ) (Joule)
system.mem_ctrl.dram.rank0.averagePower    558.255430                       # Core power per rank (mW) (Watt)
system.mem_ctrl.dram.rank0.totalIdleTime            0                       # Total Idle time Per DRAM Rank (Tick)
system.mem_ctrl.dram.rank0.pwrStateTime::IDLE   2458426000                       # Time in different power states (Tick)
system.mem_ctrl.dram.rank0.pwrStateTime::REF    469820000                       # Time in different power states (Tick)
system.mem_ctrl.dram.rank0.pwrStateTime::SREF            0                       # Time in different power states (Tick)
system.mem_ctrl.dram.rank0.pwrStateTime::PRE_PDN            0                       # Time in different power states (Tick)
system.mem_ctrl.dram.rank0.pwrStateTime::ACT  11143270000                       # Time in different power states (Tick)
system.mem_ctrl.dram.rank0.pwrStateTime::ACT_PDN            0                       # Time in different power states (Tick)
system.mem_ctrl.dram.rank1.actEnergy         55306440                       # Energy for activate commands per rank (pJ) (Joule)
system.mem_ctrl.dram.rank1.preEnergy         29392275                       # Energy for precharge commands per rank (pJ) (Joule)
system.mem_ctrl.dram.rank1.readEnergy       284557560                       # Energy for read commands per rank (pJ) (Joule)
system.mem_ctrl.dram.rank1.writeEnergy      134691660                       # Energy for write commands per rank (pJ) (Joule)
system.mem_ctrl.dram.rank1.refreshEnergy 1110654480.000000                       # Energy for refresh commands per rank (pJ) (Joule)
system.mem_ctrl.dram.rank1.actBackEnergy   5256512640                       # Energy for active background per rank (pJ) (Joule)
system.mem_ctrl.dram.rank1.preBackEnergy    976925280                       # Energy for precharge background per rank (pJ) (Joule)
system.mem_ctrl.dram.rank1.actPowerDownEnergy            0                       # Energy for active power-down per rank (pJ) (Joule)
system.mem_ctrl.dram.rank1.prePowerDownEnergy            0                       # Energy for precharge power-down per rank (pJ) (Joule)
system.mem_ctrl.dram.rank1.selfRefreshEnergy            0                       # Energy for self refresh per rank (pJ) (Joule)
system.mem_ctrl.dram.rank1.totalEnergy     7848040335                       # Total energy per rank (pJ) (Joule)
system.mem_ctrl.dram.rank1.averagePower    557.725290                       # Core power per rank (mW) (Watt)
system.mem_ctrl.dram.rank1.totalIdleTime            0                       # Total Idle time Per DRAM Rank (Tick)
system.mem_ctrl.dram.rank1.pwrStateTime::IDLE   2484305500                       # Time in different power states (Tick)
system.mem_ctrl.dram.rank1.pwrStateTime::REF    469820000                       # Time in different power states (Tick)
system.mem_ctrl.dram.rank1.pwrStateTime::SREF            0                       # Time in different power states (Tick)
system.mem_ctrl.dram.rank1.pwrStateTime::PRE_PDN            0                       # Time in different power states (Tick)
system.mem_ctrl.dram.rank1.pwrStateTime::ACT  11117390500                       # Time in different power states (Tick)
system.mem_ctrl.dram.rank1.pwrStateTime::ACT_PDN            0                       # Time in different power states (Tick)
system.mem_ctrl.power_state.pwrStateResidencyTicks::UNDEFINED  14071516000                       # Cumulative time (in ticks) in various power states (Tick)
system.membus.transDist::ReadResp               79710                       # Transaction distribution (Count)
system.membus.transDist::WritebackDirty         51567                       # Transaction distribution (Count)
system.membus.transDist::CleanEvict             28559                       # Transaction distribution (Count)
system.membus.transDist::ReadExReq                417                       # Transaction distribution (Count)
system.membus.transDist::ReadExResp               417                       # Transaction distribution (Count)
system.membus.transDist::ReadSharedReq          79710                       # Transaction distribution (Count)
system.membus.pktCount_system.l2_cache.mem_side_port::system.mem_ctrl.port       240380                       # Packet count per connected requestor and responder (Count)
system.membus.pktCount_system.l2_cache.mem_side_port::total       240380                       # Packet count per connected requestor and responder (Count)
system.membus.pktCount::total                  240380                       # Packet count per connected requestor and responder (Count)
system.membus.pktSize_system.l2_cache.mem_side_port::system.mem_ctrl.port      8428416                       # Cumulative packet size per connected requestor and responder (Byte)
system.membus.pktSize_system.l2_cache.mem_side_port::total      8428416                       # Cumulative packet size per connected requestor and responder (Byte)
system.membus.pktSize::total                  8428416                       # Cumulative packet size per connected requestor and responder (Byte)
system.membus.snoops                                0                       # Total snoops (Count)
system.membus.snoopTraffic                          0                       # Total snoop traffic (Byte)
system.membus.snoopFanout::samples              80127                       # Request fanout histogram (Count)
system.membus.snoopFanout::mean                     0                       # Request fanout histogram (Count)
system.membus.snoopFanout::stdev                    0                       # Request fanout histogram (Count)
system.membus.snoopFanout::underflows               0      0.00%      0.00% # Request fanout histogram (Count)
system.membus.snoopFanout::0                    80127    100.00%    100.00% # Request fanout histogram (Count)
system.membus.snoopFanout::1                        0      0.00%    100.00% # Request fanout histogram (Count)
system.membus.snoopFanout::overflows                0      0.00%    100.00% # Request fanout histogram (Count)
system.membus.snoopFanout::min_value                0                       # Request fanout histogram (Count)
system.membus.snoopFanout::max_value                0                       # Request fanout histogram (Count)
system.membus.snoopFanout::total                80127                       # Request fanout histogram (Count)
system.membus.power_state.pwrStateResidencyTicks::UNDEFINED  14071516000                       # Cumulative time (in ticks) in various power states (Tick)
system.membus.reqLayer2.occupancy           366521002                       # Layer occupancy (ticks) (Tick)
system.membus.reqLayer2.utilization               0.0                       # Layer utilization (Ratio)
system.membus.respLayer2.occupancy          423574250                       # Layer occupancy (ticks) (Tick)
system.membus.respLayer2.utilization              0.0                       # Layer utilization (Ratio)
system.membus.snoop_filter.totRequests         160253                       # Total number of requests made to the snoop filter. (Count)
system.membus.snoop_filter.hitSingleRequests        80126                       # Number of requests hitting in the snoop filter with a single holder of the requested data. (Count)
system.membus.snoop_filter.hitMultiRequests            0                       # Number of requests hitting in the snoop filter with multiple (>1) holders of the requested data. (Count)
system.membus.snoop_filter.totSnoops                0                       # Total number of snoops made to the snoop filter. (Count)
system.membus.snoop_filter.hitSingleSnoops            0                       # Number of snoops hitting in the snoop filter with a single holder of the requested data. (Count)
system.membus.snoop_filter.hitMultiSnoops            0                       # Number of snoops hitting in the snoop filter with multiple (>1) holders of the requested data. (Count)
system.workload.inst.arm                            0                       # number of arm instructions executed (Count)
system.workload.inst.quiesce                        0                       # number of quiesce instructions executed (Count)

---------- End Simulation Statistics   ----------
