
---------- Begin Simulation Statistics ----------
simSeconds                                   2.114161                       # Number of seconds simulated (Second)
simTicks                                 2114161343000                       # Number of ticks simulated (Tick)
finalTick                                2114161343000                       # Number of ticks from beginning of simulation (restored from checkpoints and never reset) (Tick)
simFreq                                  1000000000000                       # The number of ticks per simulated second ((Tick/Second))
hostSeconds                                   8237.93                       # Real time elapsed on the host (Second)
hostTickRate                                256637397                       # The number of ticks simulated per host second (ticks/s) ((Tick/Second))
hostMemory                                    8760576                       # Number of bytes of host memory used (Byte)
simInsts                                   1615522804                       # Number of instructions simulated (Count)
simOps                                     2837426030                       # Number of ops (including micro ops) simulated (Count)
hostInstRate                                   196108                       # Simulator instruction rate (inst/s) ((Count/Second))
hostOpRate                                     344434                       # Simulator op (including micro ops) rate (op/s) ((Count/Second))
system.clk_domain.clock                          1000                       # Clock period in ticks (Tick)
system.clk_domain.voltage_domain.voltage            1                       # Voltage in Volts (Volt)
system.cpu.numCycles                       2114161344                       # Number of cpu cycles simulated (Cycle)
system.cpu.cpi                               1.308655                       # CPI: cycles per instruction (core level) ((Cycle/Count))
system.cpu.ipc                               0.764144                       # IPC: instructions per cycle (core level) ((Count/Cycle))
system.cpu.numWorkItemsStarted                      0                       # Number of work items this cpu started (Count)
system.cpu.numWorkItemsCompleted                    0                       # Number of work items this cpu completed (Count)
system.cpu.instsAdded                      4312099239                       # Number of instructions added to the IQ (excludes non-spec) (Count)
system.cpu.nonSpecInstsAdded                   359479                       # Number of non-speculative instructions added to the IQ (Count)
system.cpu.instsIssued                     3986895975                       # Number of instructions issued (Count)
system.cpu.squashedInstsIssued               14256876                       # Number of squashed instructions issued (Count)
system.cpu.squashedInstsExamined           1475032667                       # Number of squashed instructions iterated over during squash; mainly for profiling (Count)
system.cpu.squashedOperandsExamined        1929177375                       # Number of squashed operands that are examined and possibly removed from graph (Count)
system.cpu.squashedNonSpecRemoved               33284                       # Number of squashed non-spec instructions that were removed (Count)
system.cpu.numIssuedDist::samples          2107608974                       # Number of insts issued each cycle (Count)
system.cpu.numIssuedDist::mean               1.891668                       # Number of insts issued each cycle (Count)
system.cpu.numIssuedDist::stdev              2.412230                       # Number of insts issued each cycle (Count)
system.cpu.numIssuedDist::underflows                0      0.00%      0.00% # Number of insts issued each cycle (Count)
system.cpu.numIssuedDist::0                 912858862     43.31%     43.31% # Number of insts issued each cycle (Count)
system.cpu.numIssuedDist::1                 348832985     16.55%     59.86% # Number of insts issued each cycle (Count)
system.cpu.numIssuedDist::2                 249546230     11.84%     71.70% # Number of insts issued each cycle (Count)
system.cpu.numIssuedDist::3                 149648186      7.10%     78.80% # Number of insts issued each cycle (Count)
system.cpu.numIssuedDist::4                  91210687      4.33%     83.13% # Number of insts issued each cycle (Count)
system.cpu.numIssuedDist::5                  80153670      3.80%     86.94% # Number of insts issued each cycle (Count)
system.cpu.numIssuedDist::6                 101265015      4.80%     91.74% # Number of insts issued each cycle (Count)
system.cpu.numIssuedDist::7                  75921928      3.60%     95.34% # Number of insts issued each cycle (Count)
system.cpu.numIssuedDist::8                  98171411      4.66%    100.00% # Number of insts issued each cycle (Count)
system.cpu.numIssuedDist::overflows                 0      0.00%    100.00% # Number of insts issued each cycle (Count)
system.cpu.numIssuedDist::min_value                 0                       # Number of insts issued each cycle (Count)
system.cpu.numIssuedDist::max_value                 8                       # Number of insts issued each cycle (Count)
system.cpu.numIssuedDist::total            2107608974                       # Number of insts issued each cycle (Count)
system.cpu.statFuBusy::No_OpClass                   0      0.00%      0.00% # attempts to use FU when none available (Count)
system.cpu.statFuBusy::IntAlu                13849527     79.08%     79.08% # attempts to use FU when none available (Count)
system.cpu.statFuBusy::IntMult                      0      0.00%     79.08% # attempts to use FU when none available (Count)
system.cpu.statFuBusy::IntDiv                       0      0.00%     79.08% # attempts to use FU when none available (Count)
system.cpu.statFuBusy::FloatAdd                     0      0.00%     79.08% # attempts to use FU when none available (Count)
system.cpu.statFuBusy::FloatCmp                     0      0.00%     79.08% # attempts to use FU when none available (Count)
system.cpu.statFuBusy::FloatCvt                     0      0.00%     79.08% # attempts to use FU when none available (Count)
system.cpu.statFuBusy::FloatMult                    0      0.00%     79.08% # attempts to use FU when none available (Count)
system.cpu.statFuBusy::FloatMultAcc                 0      0.00%     79.08% # attempts to use FU when none available (Count)
system.cpu.statFuBusy::FloatDiv                     0      0.00%     79.08% # attempts to use FU when none available (Count)
system.cpu.statFuBusy::FloatMisc                    0      0.00%     79.08% # attempts to use FU when none available (Count)
system.cpu.statFuBusy::FloatSqrt                    0      0.00%     79.08% # attempts to use FU when none available (Count)
system.cpu.statFuBusy::SimdAdd                     12      0.00%     79.08% # attempts to use FU when none available (Count)
system.cpu.statFuBusy::SimdAddAcc                   0      0.00%     79.08% # attempts to use FU when none available (Count)
system.cpu.statFuBusy::SimdAlu                  23040      0.13%     79.21% # attempts to use FU when none available (Count)
system.cpu.statFuBusy::SimdCmp                      0      0.00%     79.21% # attempts to use FU when none available (Count)
system.cpu.statFuBusy::SimdCvt                    230      0.00%     79.21% # attempts to use FU when none available (Count)
system.cpu.statFuBusy::SimdMisc                   157      0.00%     79.21% # attempts to use FU when none available (Count)
system.cpu.statFuBusy::SimdMult                     0      0.00%     79.21% # attempts to use FU when none available (Count)
system.cpu.statFuBusy::SimdMultAcc                  0      0.00%     79.21% # attempts to use FU when none available (Count)
system.cpu.statFuBusy::SimdMatMultAcc               0      0.00%     79.21% # attempts to use FU when none available (Count)
system.cpu.statFuBusy::SimdShift                   69      0.00%     79.21% # attempts to use FU when none available (Count)
system.cpu.statFuBusy::SimdShiftAcc                 0      0.00%     79.21% # attempts to use FU when none available (Count)
system.cpu.statFuBusy::SimdDiv                      0      0.00%     79.21% # attempts to use FU when none available (Count)
system.cpu.statFuBusy::SimdSqrt                     0      0.00%     79.21% # attempts to use FU when none available (Count)
system.cpu.statFuBusy::SimdFloatAdd                 0      0.00%     79.21% # attempts to use FU when none available (Count)
system.cpu.statFuBusy::SimdFloatAlu                 0      0.00%     79.21% # attempts to use FU when none available (Count)
system.cpu.statFuBusy::SimdFloatCmp                 0      0.00%     79.21% # attempts to use FU when none available (Count)
system.cpu.statFuBusy::SimdFloatCvt            383969      2.19%     81.41% # attempts to use FU when none available (Count)
system.cpu.statFuBusy::SimdFloatDiv                 0      0.00%     81.41% # attempts to use FU when none available (Count)
system.cpu.statFuBusy::SimdFloatMisc                0      0.00%     81.41% # attempts to use FU when none available (Count)
system.cpu.statFuBusy::SimdFloatMult                0      0.00%     81.41% # attempts to use FU when none available (Count)
system.cpu.statFuBusy::SimdFloatMultAcc             0      0.00%     81.41% # attempts to use FU when none available (Count)
system.cpu.statFuBusy::SimdFloatMatMultAcc            0      0.00%     81.41% # attempts to use FU when none available (Count)
system.cpu.statFuBusy::SimdFloatSqrt                0      0.00%     81.41% # attempts to use FU when none available (Count)
system.cpu.statFuBusy::SimdReduceAdd                0      0.00%     81.41% # attempts to use FU when none available (Count)
system.cpu.statFuBusy::SimdReduceAlu                0      0.00%     81.41% # attempts to use FU when none available (Count)
system.cpu.statFuBusy::SimdReduceCmp                0      0.00%     81.41% # attempts to use FU when none available (Count)
system.cpu.statFuBusy::SimdFloatReduceAdd            0      0.00%     81.41% # attempts to use FU when none available (Count)
system.cpu.statFuBusy::SimdFloatReduceCmp            0      0.00%     81.41% # attempts to use FU when none available (Count)
system.cpu.statFuBusy::SimdAes                      0      0.00%     81.41% # attempts to use FU when none available (Count)
system.cpu.statFuBusy::SimdAesMix                   0      0.00%     81.41% # attempts to use FU when none available (Count)
system.cpu.statFuBusy::SimdSha1Hash                 0      0.00%     81.41% # attempts to use FU when none available (Count)
system.cpu.statFuBusy::SimdSha1Hash2                0      0.00%     81.41% # attempts to use FU when none available (Count)
system.cpu.statFuBusy::SimdSha256Hash               0      0.00%     81.41% # attempts to use FU when none available (Count)
system.cpu.statFuBusy::SimdSha256Hash2              0      0.00%     81.41% # attempts to use FU when none available (Count)
system.cpu.statFuBusy::SimdShaSigma2                0      0.00%     81.41% # attempts to use FU when none available (Count)
system.cpu.statFuBusy::SimdShaSigma3                0      0.00%     81.41% # attempts to use FU when none available (Count)
system.cpu.statFuBusy::SimdPredAlu                  0      0.00%     81.41% # attempts to use FU when none available (Count)
system.cpu.statFuBusy::Matrix                       0      0.00%     81.41% # attempts to use FU when none available (Count)
system.cpu.statFuBusy::MatrixMov                    0      0.00%     81.41% # attempts to use FU when none available (Count)
system.cpu.statFuBusy::MatrixOP                     0      0.00%     81.41% # attempts to use FU when none available (Count)
system.cpu.statFuBusy::MemRead                 877596      5.01%     86.42% # attempts to use FU when none available (Count)
system.cpu.statFuBusy::MemWrite                464057      2.65%     89.07% # attempts to use FU when none available (Count)
system.cpu.statFuBusy::FloatMemRead           1281696      7.32%     96.39% # attempts to use FU when none available (Count)
system.cpu.statFuBusy::FloatMemWrite           632919      3.61%    100.00% # attempts to use FU when none available (Count)
system.cpu.statFuBusy::IprAccess                    0      0.00%    100.00% # attempts to use FU when none available (Count)
system.cpu.statFuBusy::InstPrefetch                 0      0.00%    100.00% # attempts to use FU when none available (Count)
system.cpu.statFuBusy::SimdUnitStrideLoad            0      0.00%    100.00% # attempts to use FU when none available (Count)
system.cpu.statFuBusy::SimdUnitStrideStore            0      0.00%    100.00% # attempts to use FU when none available (Count)
system.cpu.statFuBusy::SimdUnitStrideMaskLoad            0      0.00%    100.00% # attempts to use FU when none available (Count)
system.cpu.statFuBusy::SimdUnitStrideMaskStore            0      0.00%    100.00% # attempts to use FU when none available (Count)
system.cpu.statFuBusy::SimdStridedLoad              0      0.00%    100.00% # attempts to use FU when none available (Count)
system.cpu.statFuBusy::SimdStridedStore             0      0.00%    100.00% # attempts to use FU when none available (Count)
system.cpu.statFuBusy::SimdIndexedLoad              0      0.00%    100.00% # attempts to use FU when none available (Count)
system.cpu.statFuBusy::SimdIndexedStore             0      0.00%    100.00% # attempts to use FU when none available (Count)
system.cpu.statFuBusy::SimdWholeRegisterLoad            0      0.00%    100.00% # attempts to use FU when none available (Count)
system.cpu.statFuBusy::SimdWholeRegisterStore            0      0.00%    100.00% # attempts to use FU when none available (Count)
system.cpu.statFuBusy::SimdUnitStrideFaultOnlyFirstLoad            0      0.00%    100.00% # attempts to use FU when none available (Count)
system.cpu.statFuBusy::SimdUnitStrideSegmentedLoad            0      0.00%    100.00% # attempts to use FU when none available (Count)
system.cpu.statFuBusy::SimdUnitStrideSegmentedStore            0      0.00%    100.00% # attempts to use FU when none available (Count)
system.cpu.statFuBusy::SimdExt                      0      0.00%    100.00% # attempts to use FU when none available (Count)
system.cpu.statFuBusy::SimdFloatExt                 0      0.00%    100.00% # attempts to use FU when none available (Count)
system.cpu.statFuBusy::SimdConfig                   0      0.00%    100.00% # attempts to use FU when none available (Count)
system.cpu.statIssuedInstType_0::No_OpClass     37447790      0.94%      0.94% # Number of instructions issued per FU type, per thread (Count)
system.cpu.statIssuedInstType_0::IntAlu    2775667899     69.62%     70.56% # Number of instructions issued per FU type, per thread (Count)
system.cpu.statIssuedInstType_0::IntMult       847193      0.02%     70.58% # Number of instructions issued per FU type, per thread (Count)
system.cpu.statIssuedInstType_0::IntDiv         48053      0.00%     70.58% # Number of instructions issued per FU type, per thread (Count)
system.cpu.statIssuedInstType_0::FloatAdd    300149913      7.53%     78.11% # Number of instructions issued per FU type, per thread (Count)
system.cpu.statIssuedInstType_0::FloatCmp            0      0.00%     78.11% # Number of instructions issued per FU type, per thread (Count)
system.cpu.statIssuedInstType_0::FloatCvt         1472      0.00%     78.11% # Number of instructions issued per FU type, per thread (Count)
system.cpu.statIssuedInstType_0::FloatMult            0      0.00%     78.11% # Number of instructions issued per FU type, per thread (Count)
system.cpu.statIssuedInstType_0::FloatMultAcc            0      0.00%     78.11% # Number of instructions issued per FU type, per thread (Count)
system.cpu.statIssuedInstType_0::FloatDiv            0      0.00%     78.11% # Number of instructions issued per FU type, per thread (Count)
system.cpu.statIssuedInstType_0::FloatMisc            0      0.00%     78.11% # Number of instructions issued per FU type, per thread (Count)
system.cpu.statIssuedInstType_0::FloatSqrt            0      0.00%     78.11% # Number of instructions issued per FU type, per thread (Count)
system.cpu.statIssuedInstType_0::SimdAdd         7364      0.00%     78.11% # Number of instructions issued per FU type, per thread (Count)
system.cpu.statIssuedInstType_0::SimdAddAcc            0      0.00%     78.11% # Number of instructions issued per FU type, per thread (Count)
system.cpu.statIssuedInstType_0::SimdAlu      1010990      0.03%     78.14% # Number of instructions issued per FU type, per thread (Count)
system.cpu.statIssuedInstType_0::SimdCmp            6      0.00%     78.14% # Number of instructions issued per FU type, per thread (Count)
system.cpu.statIssuedInstType_0::SimdCvt        64277      0.00%     78.14% # Number of instructions issued per FU type, per thread (Count)
system.cpu.statIssuedInstType_0::SimdMisc      9096691      0.23%     78.37% # Number of instructions issued per FU type, per thread (Count)
system.cpu.statIssuedInstType_0::SimdMult            0      0.00%     78.37% # Number of instructions issued per FU type, per thread (Count)
system.cpu.statIssuedInstType_0::SimdMultAcc            0      0.00%     78.37% # Number of instructions issued per FU type, per thread (Count)
system.cpu.statIssuedInstType_0::SimdMatMultAcc            0      0.00%     78.37% # Number of instructions issued per FU type, per thread (Count)
system.cpu.statIssuedInstType_0::SimdShift         4047      0.00%     78.37% # Number of instructions issued per FU type, per thread (Count)
system.cpu.statIssuedInstType_0::SimdShiftAcc            0      0.00%     78.37% # Number of instructions issued per FU type, per thread (Count)
system.cpu.statIssuedInstType_0::SimdDiv            0      0.00%     78.37% # Number of instructions issued per FU type, per thread (Count)
system.cpu.statIssuedInstType_0::SimdSqrt            0      0.00%     78.37% # Number of instructions issued per FU type, per thread (Count)
system.cpu.statIssuedInstType_0::SimdFloatAdd          302      0.00%     78.37% # Number of instructions issued per FU type, per thread (Count)
system.cpu.statIssuedInstType_0::SimdFloatAlu            0      0.00%     78.37% # Number of instructions issued per FU type, per thread (Count)
system.cpu.statIssuedInstType_0::SimdFloatCmp            0      0.00%     78.37% # Number of instructions issued per FU type, per thread (Count)
system.cpu.statIssuedInstType_0::SimdFloatCvt    215492540      5.41%     83.77% # Number of instructions issued per FU type, per thread (Count)
system.cpu.statIssuedInstType_0::SimdFloatDiv       100280      0.00%     83.77% # Number of instructions issued per FU type, per thread (Count)
system.cpu.statIssuedInstType_0::SimdFloatMisc            0      0.00%     83.77% # Number of instructions issued per FU type, per thread (Count)
system.cpu.statIssuedInstType_0::SimdFloatMult            8      0.00%     83.77% # Number of instructions issued per FU type, per thread (Count)
system.cpu.statIssuedInstType_0::SimdFloatMultAcc            0      0.00%     83.77% # Number of instructions issued per FU type, per thread (Count)
system.cpu.statIssuedInstType_0::SimdFloatMatMultAcc            0      0.00%     83.77% # Number of instructions issued per FU type, per thread (Count)
system.cpu.statIssuedInstType_0::SimdFloatSqrt            0      0.00%     83.77% # Number of instructions issued per FU type, per thread (Count)
system.cpu.statIssuedInstType_0::SimdReduceAdd            0      0.00%     83.77% # Number of instructions issued per FU type, per thread (Count)
system.cpu.statIssuedInstType_0::SimdReduceAlu            0      0.00%     83.77% # Number of instructions issued per FU type, per thread (Count)
system.cpu.statIssuedInstType_0::SimdReduceCmp            0      0.00%     83.77% # Number of instructions issued per FU type, per thread (Count)
system.cpu.statIssuedInstType_0::SimdFloatReduceAdd            0      0.00%     83.77% # Number of instructions issued per FU type, per thread (Count)
system.cpu.statIssuedInstType_0::SimdFloatReduceCmp            0      0.00%     83.77% # Number of instructions issued per FU type, per thread (Count)
system.cpu.statIssuedInstType_0::SimdAes            0      0.00%     83.77% # Number of instructions issued per FU type, per thread (Count)
system.cpu.statIssuedInstType_0::SimdAesMix            0      0.00%     83.77% # Number of instructions issued per FU type, per thread (Count)
system.cpu.statIssuedInstType_0::SimdSha1Hash            0      0.00%     83.77% # Number of instructions issued per FU type, per thread (Count)
system.cpu.statIssuedInstType_0::SimdSha1Hash2            0      0.00%     83.77% # Number of instructions issued per FU type, per thread (Count)
system.cpu.statIssuedInstType_0::SimdSha256Hash            0      0.00%     83.77% # Number of instructions issued per FU type, per thread (Count)
system.cpu.statIssuedInstType_0::SimdSha256Hash2            0      0.00%     83.77% # Number of instructions issued per FU type, per thread (Count)
system.cpu.statIssuedInstType_0::SimdShaSigma2            0      0.00%     83.77% # Number of instructions issued per FU type, per thread (Count)
system.cpu.statIssuedInstType_0::SimdShaSigma3            0      0.00%     83.77% # Number of instructions issued per FU type, per thread (Count)
system.cpu.statIssuedInstType_0::SimdPredAlu            0      0.00%     83.77% # Number of instructions issued per FU type, per thread (Count)
system.cpu.statIssuedInstType_0::Matrix             0      0.00%     83.77% # Number of instructions issued per FU type, per thread (Count)
system.cpu.statIssuedInstType_0::MatrixMov            0      0.00%     83.77% # Number of instructions issued per FU type, per thread (Count)
system.cpu.statIssuedInstType_0::MatrixOP            0      0.00%     83.77% # Number of instructions issued per FU type, per thread (Count)
system.cpu.statIssuedInstType_0::MemRead    123359140      3.09%     86.87% # Number of instructions issued per FU type, per thread (Count)
system.cpu.statIssuedInstType_0::MemWrite     58883405      1.48%     88.34% # Number of instructions issued per FU type, per thread (Count)
system.cpu.statIssuedInstType_0::FloatMemRead    333080757      8.35%     96.70% # Number of instructions issued per FU type, per thread (Count)
system.cpu.statIssuedInstType_0::FloatMemWrite    131633848      3.30%    100.00% # Number of instructions issued per FU type, per thread (Count)
system.cpu.statIssuedInstType_0::IprAccess            0      0.00%    100.00% # Number of instructions issued per FU type, per thread (Count)
system.cpu.statIssuedInstType_0::InstPrefetch            0      0.00%    100.00% # Number of instructions issued per FU type, per thread (Count)
system.cpu.statIssuedInstType_0::SimdUnitStrideLoad            0      0.00%    100.00% # Number of instructions issued per FU type, per thread (Count)
system.cpu.statIssuedInstType_0::SimdUnitStrideStore            0      0.00%    100.00% # Number of instructions issued per FU type, per thread (Count)
system.cpu.statIssuedInstType_0::SimdUnitStrideMaskLoad            0      0.00%    100.00% # Number of instructions issued per FU type, per thread (Count)
system.cpu.statIssuedInstType_0::SimdUnitStrideMaskStore            0      0.00%    100.00% # Number of instructions issued per FU type, per thread (Count)
system.cpu.statIssuedInstType_0::SimdStridedLoad            0      0.00%    100.00% # Number of instructions issued per FU type, per thread (Count)
system.cpu.statIssuedInstType_0::SimdStridedStore            0      0.00%    100.00% # Number of instructions issued per FU type, per thread (Count)
system.cpu.statIssuedInstType_0::SimdIndexedLoad            0      0.00%    100.00% # Number of instructions issued per FU type, per thread (Count)
system.cpu.statIssuedInstType_0::SimdIndexedStore            0      0.00%    100.00% # Number of instructions issued per FU type, per thread (Count)
system.cpu.statIssuedInstType_0::SimdWholeRegisterLoad            0      0.00%    100.00% # Number of instructions issued per FU type, per thread (Count)
system.cpu.statIssuedInstType_0::SimdWholeRegisterStore            0      0.00%    100.00% # Number of instructions issued per FU type, per thread (Count)
system.cpu.statIssuedInstType_0::SimdUnitStrideFaultOnlyFirstLoad            0      0.00%    100.00% # Number of instructions issued per FU type, per thread (Count)
system.cpu.statIssuedInstType_0::SimdUnitStrideSegmentedLoad            0      0.00%    100.00% # Number of instructions issued per FU type, per thread (Count)
system.cpu.statIssuedInstType_0::SimdUnitStrideSegmentedStore            0      0.00%    100.00% # Number of instructions issued per FU type, per thread (Count)
system.cpu.statIssuedInstType_0::SimdExt            0      0.00%    100.00% # Number of instructions issued per FU type, per thread (Count)
system.cpu.statIssuedInstType_0::SimdFloatExt            0      0.00%    100.00% # Number of instructions issued per FU type, per thread (Count)
system.cpu.statIssuedInstType_0::SimdConfig            0      0.00%    100.00% # Number of instructions issued per FU type, per thread (Count)
system.cpu.statIssuedInstType_0::total     3986895975                       # Number of instructions issued per FU type, per thread (Count)
system.cpu.issueRate                         1.885805                       # Inst issue rate ((Count/Cycle))
system.cpu.fuBusy                            17513272                       # FU busy when requested (Count)
system.cpu.fuBusyRate                        0.004393                       # FU busy rate (busy events/executed inst) ((Count/Count))
system.cpu.intInstQueueReads               8110144847                       # Number of integer instruction queue reads (Count)
system.cpu.intInstQueueWrites              4101044793                       # Number of integer instruction queue writes (Count)
system.cpu.intInstQueueWakeupAccesses      2881288106                       # Number of integer instruction queue wakeup accesses (Count)
system.cpu.fpInstQueueReads                2003026225                       # Number of floating instruction queue reads (Count)
system.cpu.fpInstQueueWrites               1686536367                       # Number of floating instruction queue writes (Count)
system.cpu.fpInstQueueWakeupAccesses        890646131                       # Number of floating instruction queue wakeup accesses (Count)
system.cpu.vecInstQueueReads                        0                       # Number of vector instruction queue reads (Count)
system.cpu.vecInstQueueWrites                       0                       # Number of vector instruction queue writes (Count)
system.cpu.vecInstQueueWakeupAccesses               0                       # Number of vector instruction queue wakeup accesses (Count)
system.cpu.intAluAccesses                  2965764754                       # Number of integer alu accesses (Count)
system.cpu.fpAluAccesses                   1001196703                       # Number of floating point alu accesses (Count)
system.cpu.vecAluAccesses                           0                       # Number of vector alu accesses (Count)
system.cpu.numSquashedInsts                 174324881                       # Number of squashed instructions skipped in execute (Count)
system.cpu.numSwp                                   0                       # Number of swp insts executed (Count)
system.cpu.timesIdled                          232587                       # Number of times that the entire CPU went into an idle state and unscheduled itself (Count)
system.cpu.idleCycles                         6552370                       # Total number of cycles that the CPU has spent unscheduled due to idling (Cycle)
system.cpu.MemDepUnit__0.insertedLoads      507981777                       # Number of loads inserted to the mem dependence unit. (Count)
system.cpu.MemDepUnit__0.insertedStores     217319235                       # Number of stores inserted to the mem dependence unit. (Count)
system.cpu.MemDepUnit__0.conflictingLoads    107955474                       # Number of conflicting loads. (Count)
system.cpu.MemDepUnit__0.conflictingStores     47125176                       # Number of conflicting stores. (Count)
system.cpu.MemDepUnit__1.insertedLoads              0                       # Number of loads inserted to the mem dependence unit. (Count)
system.cpu.MemDepUnit__1.insertedStores             0                       # Number of stores inserted to the mem dependence unit. (Count)
system.cpu.MemDepUnit__1.conflictingLoads            0                       # Number of conflicting loads. (Count)
system.cpu.MemDepUnit__1.conflictingStores            0                       # Number of conflicting stores. (Count)
system.cpu.MemDepUnit__2.insertedLoads              0                       # Number of loads inserted to the mem dependence unit. (Count)
system.cpu.MemDepUnit__2.insertedStores             0                       # Number of stores inserted to the mem dependence unit. (Count)
system.cpu.MemDepUnit__2.conflictingLoads            0                       # Number of conflicting loads. (Count)
system.cpu.MemDepUnit__2.conflictingStores            0                       # Number of conflicting stores. (Count)
system.cpu.MemDepUnit__3.insertedLoads              0                       # Number of loads inserted to the mem dependence unit. (Count)
system.cpu.MemDepUnit__3.insertedStores             0                       # Number of stores inserted to the mem dependence unit. (Count)
system.cpu.MemDepUnit__3.conflictingLoads            0                       # Number of conflicting loads. (Count)
system.cpu.MemDepUnit__3.conflictingStores            0                       # Number of conflicting stores. (Count)
system.cpu.branchPred.lookups_0::NoBranch         2271      0.00%      0.00% # Number of BP lookups (Count)
system.cpu.branchPred.lookups_0::Return       5790473      0.89%      0.89% # Number of BP lookups (Count)
system.cpu.branchPred.lookups_0::CallDirect      5521492      0.85%      1.74% # Number of BP lookups (Count)
system.cpu.branchPred.lookups_0::CallIndirect         4297      0.00%      1.74% # Number of BP lookups (Count)
system.cpu.branchPred.lookups_0::DirectCond    584410462     89.68%     91.41% # Number of BP lookups (Count)
system.cpu.branchPred.lookups_0::DirectUncond     53430161      8.20%     99.61% # Number of BP lookups (Count)
system.cpu.branchPred.lookups_0::IndirectCond            0      0.00%     99.61% # Number of BP lookups (Count)
system.cpu.branchPred.lookups_0::IndirectUncond      2524505      0.39%    100.00% # Number of BP lookups (Count)
system.cpu.branchPred.lookups_0::total      651683661                       # Number of BP lookups (Count)
system.cpu.branchPred.squashes_0::NoBranch         1957      0.00%      0.00% # Number of branches that got squashed (completely removed) as an earlier branch was mispredicted. (Count)
system.cpu.branchPred.squashes_0::Return      2572055      0.71%      0.71% # Number of branches that got squashed (completely removed) as an earlier branch was mispredicted. (Count)
system.cpu.branchPred.squashes_0::CallDirect      2306738      0.64%      1.35% # Number of branches that got squashed (completely removed) as an earlier branch was mispredicted. (Count)
system.cpu.branchPred.squashes_0::CallIndirect          628      0.00%      1.35% # Number of branches that got squashed (completely removed) as an earlier branch was mispredicted. (Count)
system.cpu.branchPred.squashes_0::DirectCond    317520265     88.09%     89.44% # Number of branches that got squashed (completely removed) as an earlier branch was mispredicted. (Count)
system.cpu.branchPred.squashes_0::DirectUncond     37125545     10.30%     99.74% # Number of branches that got squashed (completely removed) as an earlier branch was mispredicted. (Count)
system.cpu.branchPred.squashes_0::IndirectCond            0      0.00%     99.74% # Number of branches that got squashed (completely removed) as an earlier branch was mispredicted. (Count)
system.cpu.branchPred.squashes_0::IndirectUncond       937749      0.26%    100.00% # Number of branches that got squashed (completely removed) as an earlier branch was mispredicted. (Count)
system.cpu.branchPred.squashes_0::total     360464937                       # Number of branches that got squashed (completely removed) as an earlier branch was mispredicted. (Count)
system.cpu.branchPred.corrected_0::NoBranch          526      0.00%      0.00% # Number of branches that got corrected but not yet commited. Branches get corrected by decode or after execute. Also a branch misprediction can be detected out-of-order. Therefore, a corrected branch might not end up beeing committed in case an even earlier branch was mispredicted (Count)
system.cpu.branchPred.corrected_0::Return         1185      0.00%      0.00% # Number of branches that got corrected but not yet commited. Branches get corrected by decode or after execute. Also a branch misprediction can be detected out-of-order. Therefore, a corrected branch might not end up beeing committed in case an even earlier branch was mispredicted (Count)
system.cpu.branchPred.corrected_0::CallDirect         5192      0.01%      0.02% # Number of branches that got corrected but not yet commited. Branches get corrected by decode or after execute. Also a branch misprediction can be detected out-of-order. Therefore, a corrected branch might not end up beeing committed in case an even earlier branch was mispredicted (Count)
system.cpu.branchPred.corrected_0::CallIndirect          772      0.00%      0.02% # Number of branches that got corrected but not yet commited. Branches get corrected by decode or after execute. Also a branch misprediction can be detected out-of-order. Therefore, a corrected branch might not end up beeing committed in case an even earlier branch was mispredicted (Count)
system.cpu.branchPred.corrected_0::DirectCond     38078301     99.82%     99.84% # Number of branches that got corrected but not yet commited. Branches get corrected by decode or after execute. Also a branch misprediction can be detected out-of-order. Therefore, a corrected branch might not end up beeing committed in case an even earlier branch was mispredicted (Count)
system.cpu.branchPred.corrected_0::DirectUncond         4152      0.01%     99.85% # Number of branches that got corrected but not yet commited. Branches get corrected by decode or after execute. Also a branch misprediction can be detected out-of-order. Therefore, a corrected branch might not end up beeing committed in case an even earlier branch was mispredicted (Count)
system.cpu.branchPred.corrected_0::IndirectCond            0      0.00%     99.85% # Number of branches that got corrected but not yet commited. Branches get corrected by decode or after execute. Also a branch misprediction can be detected out-of-order. Therefore, a corrected branch might not end up beeing committed in case an even earlier branch was mispredicted (Count)
system.cpu.branchPred.corrected_0::IndirectUncond        56873      0.15%    100.00% # Number of branches that got corrected but not yet commited. Branches get corrected by decode or after execute. Also a branch misprediction can be detected out-of-order. Therefore, a corrected branch might not end up beeing committed in case an even earlier branch was mispredicted (Count)
system.cpu.branchPred.corrected_0::total     38147001                       # Number of branches that got corrected but not yet commited. Branches get corrected by decode or after execute. Also a branch misprediction can be detected out-of-order. Therefore, a corrected branch might not end up beeing committed in case an even earlier branch was mispredicted (Count)
system.cpu.branchPred.earlyResteers_0::NoBranch            0                       # Number of branches that got redirected after decode. (Count)
system.cpu.branchPred.earlyResteers_0::Return            0                       # Number of branches that got redirected after decode. (Count)
system.cpu.branchPred.earlyResteers_0::CallDirect            0                       # Number of branches that got redirected after decode. (Count)
system.cpu.branchPred.earlyResteers_0::CallIndirect            0                       # Number of branches that got redirected after decode. (Count)
system.cpu.branchPred.earlyResteers_0::DirectCond            0                       # Number of branches that got redirected after decode. (Count)
system.cpu.branchPred.earlyResteers_0::DirectUncond            0                       # Number of branches that got redirected after decode. (Count)
system.cpu.branchPred.earlyResteers_0::IndirectCond            0                       # Number of branches that got redirected after decode. (Count)
system.cpu.branchPred.earlyResteers_0::IndirectUncond            0                       # Number of branches that got redirected after decode. (Count)
system.cpu.branchPred.earlyResteers_0::total            0                       # Number of branches that got redirected after decode. (Count)
system.cpu.branchPred.committed_0::NoBranch          314      0.00%      0.00% # Number of branches finally committed  (Count)
system.cpu.branchPred.committed_0::Return      3218417      1.11%      1.11% # Number of branches finally committed  (Count)
system.cpu.branchPred.committed_0::CallDirect      3214753      1.10%      2.21% # Number of branches finally committed  (Count)
system.cpu.branchPred.committed_0::CallIndirect         3669      0.00%      2.21% # Number of branches finally committed  (Count)
system.cpu.branchPred.committed_0::DirectCond    266890197     91.65%     93.86% # Number of branches finally committed  (Count)
system.cpu.branchPred.committed_0::DirectUncond     16304616      5.60%     99.46% # Number of branches finally committed  (Count)
system.cpu.branchPred.committed_0::IndirectCond            0      0.00%     99.46% # Number of branches finally committed  (Count)
system.cpu.branchPred.committed_0::IndirectUncond      1586756      0.54%    100.00% # Number of branches finally committed  (Count)
system.cpu.branchPred.committed_0::total    291218722                       # Number of branches finally committed  (Count)
system.cpu.branchPred.mispredicted_0::NoBranch          314      0.00%      0.00% # Number of committed branches that were mispredicted. (Count)
system.cpu.branchPred.mispredicted_0::Return          996      0.00%      0.00% # Number of committed branches that were mispredicted. (Count)
system.cpu.branchPred.mispredicted_0::CallDirect         3422      0.01%      0.01% # Number of committed branches that were mispredicted. (Count)
system.cpu.branchPred.mispredicted_0::CallIndirect          736      0.00%      0.01% # Number of committed branches that were mispredicted. (Count)
system.cpu.branchPred.mispredicted_0::DirectCond     37545254     99.83%     99.85% # Number of committed branches that were mispredicted. (Count)
system.cpu.branchPred.mispredicted_0::DirectUncond         2069      0.01%     99.85% # Number of committed branches that were mispredicted. (Count)
system.cpu.branchPred.mispredicted_0::IndirectCond            0      0.00%     99.85% # Number of committed branches that were mispredicted. (Count)
system.cpu.branchPred.mispredicted_0::IndirectUncond        55630      0.15%    100.00% # Number of committed branches that were mispredicted. (Count)
system.cpu.branchPred.mispredicted_0::total     37608421                       # Number of committed branches that were mispredicted. (Count)
system.cpu.branchPred.targetProvider_0::NoTarget    198621394     30.48%     30.48% # The component providing the target for taken branches (Count)
system.cpu.branchPred.targetProvider_0::BTB    445249412     68.32%     98.80% # The component providing the target for taken branches (Count)
system.cpu.branchPred.targetProvider_0::RAS      5790470      0.89%     99.69% # The component providing the target for taken branches (Count)
system.cpu.branchPred.targetProvider_0::Indirect      2022385      0.31%    100.00% # The component providing the target for taken branches (Count)
system.cpu.branchPred.targetProvider_0::total    651683661                       # The component providing the target for taken branches (Count)
system.cpu.branchPred.targetWrong_0::NoBranch     16446514     43.12%     43.12% # Number of branches where the target was incorrect or not available at prediction time. (Count)
system.cpu.branchPred.targetWrong_0::Return     21651567     56.76%     99.88% # Number of branches where the target was incorrect or not available at prediction time. (Count)
system.cpu.branchPred.targetWrong_0::CallDirect         1184      0.00%     99.88% # Number of branches where the target was incorrect or not available at prediction time. (Count)
system.cpu.branchPred.targetWrong_0::CallIndirect        45294      0.12%    100.00% # Number of branches where the target was incorrect or not available at prediction time. (Count)
system.cpu.branchPred.targetWrong_0::DirectCond            0      0.00%    100.00% # Number of branches where the target was incorrect or not available at prediction time. (Count)
system.cpu.branchPred.targetWrong_0::DirectUncond            0      0.00%    100.00% # Number of branches where the target was incorrect or not available at prediction time. (Count)
system.cpu.branchPred.targetWrong_0::IndirectCond            0      0.00%    100.00% # Number of branches where the target was incorrect or not available at prediction time. (Count)
system.cpu.branchPred.targetWrong_0::IndirectUncond            0      0.00%    100.00% # Number of branches where the target was incorrect or not available at prediction time. (Count)
system.cpu.branchPred.targetWrong_0::total     38144559                       # Number of branches where the target was incorrect or not available at prediction time. (Count)
system.cpu.branchPred.condPredicted         584412733                       # Number of conditional branches predicted (Count)
system.cpu.branchPred.condPredictedTaken    386624260                       # Number of conditional branches predicted as taken (Count)
system.cpu.branchPred.condIncorrect          38147001                       # Number of conditional branches incorrect (Count)
system.cpu.branchPred.predTakenBTBMiss          10596                       # Number of branches predicted taken but missed in BTB (Count)
system.cpu.branchPred.NotTakenMispredicted     16496563                       # Number branches predicted 'not taken' but turned out to be taken (Count)
system.cpu.branchPred.TakenMispredicted      21650438                       # Number branches predicted taken but are actually not taken (Count)
system.cpu.branchPred.BTBLookups            651683661                       # Number of BTB lookups (Count)
system.cpu.branchPred.BTBUpdates             16437207                       # Number of BTB updates (Count)
system.cpu.branchPred.BTBHits               623244421                       # Number of BTB hits (Count)
system.cpu.branchPred.BTBHitRatio            0.956360                       # BTB Hit Ratio (Ratio)
system.cpu.branchPred.BTBMispredicted           12706                       # Number BTB mispredictions. No target found or target wrong (Count)
system.cpu.branchPred.indirectLookups         2528802                       # Number of indirect predictor lookups. (Count)
system.cpu.branchPred.indirectHits            2022385                       # Number of indirect target hits. (Count)
system.cpu.branchPred.indirectMisses           506417                       # Number of indirect misses. (Count)
system.cpu.branchPred.indirectMispredicted            0                       # Number of mispredicted indirect branches. (Count)
system.cpu.branchPred.btb.lookups::NoBranch         2271      0.00%      0.00% # Number of BTB lookups (Count)
system.cpu.branchPred.btb.lookups::Return      5790473      0.89%      0.89% # Number of BTB lookups (Count)
system.cpu.branchPred.btb.lookups::CallDirect      5521492      0.85%      1.74% # Number of BTB lookups (Count)
system.cpu.branchPred.btb.lookups::CallIndirect         4297      0.00%      1.74% # Number of BTB lookups (Count)
system.cpu.branchPred.btb.lookups::DirectCond    584410462     89.68%     91.41% # Number of BTB lookups (Count)
system.cpu.branchPred.btb.lookups::DirectUncond     53430161      8.20%     99.61% # Number of BTB lookups (Count)
system.cpu.branchPred.btb.lookups::IndirectCond            0      0.00%     99.61% # Number of BTB lookups (Count)
system.cpu.branchPred.btb.lookups::IndirectUncond      2524505      0.39%    100.00% # Number of BTB lookups (Count)
system.cpu.branchPred.btb.lookups::total    651683661                       # Number of BTB lookups (Count)
system.cpu.branchPred.btb.misses::NoBranch          489      0.00%      0.00% # Number of BTB misses (Count)
system.cpu.branchPred.btb.misses::Return      5790472     20.36%     20.36% # Number of BTB misses (Count)
system.cpu.branchPred.btb.misses::CallDirect         5967      0.02%     20.38% # Number of BTB misses (Count)
system.cpu.branchPred.btb.misses::CallIndirect         4297      0.02%     20.40% # Number of BTB misses (Count)
system.cpu.branchPred.btb.misses::DirectCond     20109125     70.71%     91.11% # Number of BTB misses (Count)
system.cpu.branchPred.btb.misses::DirectUncond         4385      0.02%     91.12% # Number of BTB misses (Count)
system.cpu.branchPred.btb.misses::IndirectCond            0      0.00%     91.12% # Number of BTB misses (Count)
system.cpu.branchPred.btb.misses::IndirectUncond      2524505      8.88%    100.00% # Number of BTB misses (Count)
system.cpu.branchPred.btb.misses::total      28439240                       # Number of BTB misses (Count)
system.cpu.branchPred.btb.updates::NoBranch            0      0.00%      0.00% # Number of BTB updates (Count)
system.cpu.branchPred.btb.updates::Return            0      0.00%      0.00% # Number of BTB updates (Count)
system.cpu.branchPred.btb.updates::CallDirect         5192      0.03%      0.03% # Number of BTB updates (Count)
system.cpu.branchPred.btb.updates::CallIndirect            0      0.00%      0.03% # Number of BTB updates (Count)
system.cpu.branchPred.btb.updates::DirectCond     16427863     99.94%     99.97% # Number of BTB updates (Count)
system.cpu.branchPred.btb.updates::DirectUncond         4152      0.03%    100.00% # Number of BTB updates (Count)
system.cpu.branchPred.btb.updates::IndirectCond            0      0.00%    100.00% # Number of BTB updates (Count)
system.cpu.branchPred.btb.updates::IndirectUncond            0      0.00%    100.00% # Number of BTB updates (Count)
system.cpu.branchPred.btb.updates::total     16437207                       # Number of BTB updates (Count)
system.cpu.branchPred.btb.mispredict::NoBranch            0      0.00%      0.00% # Number of BTB mispredictions. No target found or target wrong. (Count)
system.cpu.branchPred.btb.mispredict::Return            0      0.00%      0.00% # Number of BTB mispredictions. No target found or target wrong. (Count)
system.cpu.branchPred.btb.mispredict::CallDirect         5192      0.03%      0.03% # Number of BTB mispredictions. No target found or target wrong. (Count)
system.cpu.branchPred.btb.mispredict::CallIndirect            0      0.00%      0.03% # Number of BTB mispredictions. No target found or target wrong. (Count)
system.cpu.branchPred.btb.mispredict::DirectCond     16427863     99.94%     99.97% # Number of BTB mispredictions. No target found or target wrong. (Count)
system.cpu.branchPred.btb.mispredict::DirectUncond         4152      0.03%    100.00% # Number of BTB mispredictions. No target found or target wrong. (Count)
system.cpu.branchPred.btb.mispredict::IndirectCond            0      0.00%    100.00% # Number of BTB mispredictions. No target found or target wrong. (Count)
system.cpu.branchPred.btb.mispredict::IndirectUncond            0      0.00%    100.00% # Number of BTB mispredictions. No target found or target wrong. (Count)
system.cpu.branchPred.btb.mispredict::total     16437207                       # Number of BTB mispredictions. No target found or target wrong. (Count)
system.cpu.branchPred.btb.power_state.pwrStateResidencyTicks::UNDEFINED 2114161343000                       # Cumulative time (in ticks) in various power states (Tick)
system.cpu.branchPred.indirectBranchPred.lookups      2528802                       # Number of lookups (Count)
system.cpu.branchPred.indirectBranchPred.hits      2022385                       # Number of hits of a tag (Count)
system.cpu.branchPred.indirectBranchPred.misses       506417                       # Number of misses (Count)
system.cpu.branchPred.indirectBranchPred.targetRecords        57645                       # Number of targets that where recorded/installed in the cache (Count)
system.cpu.branchPred.indirectBranchPred.indirectRecords      2586447                       # Number of indirect branches/calls recorded in the indirect hist (Count)
system.cpu.branchPred.indirectBranchPred.speculativeOverflows            1                       # Number of times more than the allowed capacity for speculative branches/calls where in flight and destroy the path history (Count)
system.cpu.branchPred.ras.pushes              8097844                       # Number of times a PC was pushed onto the RAS (Count)
system.cpu.branchPred.ras.pops                8097839                       # Number of times a PC was poped from the RAS (Count)
system.cpu.branchPred.ras.squashes            4879421                       # Number of times the stack operation was squashed due to wrong speculation. (Count)
system.cpu.branchPred.ras.used                3218417                       # Number of times the RAS is the provider (Count)
system.cpu.branchPred.ras.correct             3217421                       # Number of times the RAS is the provider and the prediction is correct (Count)
system.cpu.branchPred.ras.incorrect               996                       # Number of times the RAS is the provider and the prediction is wrong (Count)
system.cpu.commit.commitSquashedInsts      1474995723                       # The number of squashed insts skipped by commit (Count)
system.cpu.commit.commitNonSpecStalls          326195                       # The number of times commit has been forced to stall to communicate backwards (Count)
system.cpu.commit.branchMispredicts          38138106                       # The number of times a branch was mispredicted (Count)
system.cpu.commit.numCommittedDist::samples   1909050041                       # Number of insts commited each cycle (Count)
system.cpu.commit.numCommittedDist::mean     1.486303                       # Number of insts commited each cycle (Count)
system.cpu.commit.numCommittedDist::stdev     2.356763                       # Number of insts commited each cycle (Count)
system.cpu.commit.numCommittedDist::underflows            0      0.00%      0.00% # Number of insts commited each cycle (Count)
system.cpu.commit.numCommittedDist::0      1069326365     56.01%     56.01% # Number of insts commited each cycle (Count)
system.cpu.commit.numCommittedDist::1       317146772     16.61%     72.63% # Number of insts commited each cycle (Count)
system.cpu.commit.numCommittedDist::2        43312715      2.27%     74.90% # Number of insts commited each cycle (Count)
system.cpu.commit.numCommittedDist::3       175439762      9.19%     84.09% # Number of insts commited each cycle (Count)
system.cpu.commit.numCommittedDist::4        68064818      3.57%     87.65% # Number of insts commited each cycle (Count)
system.cpu.commit.numCommittedDist::5        32225097      1.69%     89.34% # Number of insts commited each cycle (Count)
system.cpu.commit.numCommittedDist::6        72719025      3.81%     93.15% # Number of insts commited each cycle (Count)
system.cpu.commit.numCommittedDist::7         8888261      0.47%     93.61% # Number of insts commited each cycle (Count)
system.cpu.commit.numCommittedDist::8       121927226      6.39%    100.00% # Number of insts commited each cycle (Count)
system.cpu.commit.numCommittedDist::overflows            0      0.00%    100.00% # Number of insts commited each cycle (Count)
system.cpu.commit.numCommittedDist::min_value            0                       # Number of insts commited each cycle (Count)
system.cpu.commit.numCommittedDist::max_value            8                       # Number of insts commited each cycle (Count)
system.cpu.commit.numCommittedDist::total   1909050041                       # Number of insts commited each cycle (Count)
system.cpu.commit.amos                              0                       # Number of atomic instructions committed (Count)
system.cpu.commit.membars                      216526                       # Number of memory barriers committed (Count)
system.cpu.commit.functionCalls               3218422                       # Number of function calls committed. (Count)
system.cpu.commit.committedInstType_0::No_OpClass     20453483      0.72%      0.72% # Class of committed instruction (Count)
system.cpu.commit.committedInstType_0::IntAlu   2033123062     71.65%     72.37% # Class of committed instruction (Count)
system.cpu.commit.committedInstType_0::IntMult       844390      0.03%     72.40% # Class of committed instruction (Count)
system.cpu.commit.committedInstType_0::IntDiv        43547      0.00%     72.41% # Class of committed instruction (Count)
system.cpu.commit.committedInstType_0::FloatAdd    136402170      4.81%     77.21% # Class of committed instruction (Count)
system.cpu.commit.committedInstType_0::FloatCmp            0      0.00%     77.21% # Class of committed instruction (Count)
system.cpu.commit.committedInstType_0::FloatCvt         1472      0.00%     77.21% # Class of committed instruction (Count)
system.cpu.commit.committedInstType_0::FloatMult            0      0.00%     77.21% # Class of committed instruction (Count)
system.cpu.commit.committedInstType_0::FloatMultAcc            0      0.00%     77.21% # Class of committed instruction (Count)
system.cpu.commit.committedInstType_0::FloatDiv            0      0.00%     77.21% # Class of committed instruction (Count)
system.cpu.commit.committedInstType_0::FloatMisc            0      0.00%     77.21% # Class of committed instruction (Count)
system.cpu.commit.committedInstType_0::FloatSqrt            0      0.00%     77.21% # Class of committed instruction (Count)
system.cpu.commit.committedInstType_0::SimdAdd         6894      0.00%     77.21% # Class of committed instruction (Count)
system.cpu.commit.committedInstType_0::SimdAddAcc            0      0.00%     77.21% # Class of committed instruction (Count)
system.cpu.commit.committedInstType_0::SimdAlu      1004391      0.04%     77.25% # Class of committed instruction (Count)
system.cpu.commit.committedInstType_0::SimdCmp            6      0.00%     77.25% # Class of committed instruction (Count)
system.cpu.commit.committedInstType_0::SimdCvt        62554      0.00%     77.25% # Class of committed instruction (Count)
system.cpu.commit.committedInstType_0::SimdMisc      9093784      0.32%     77.57% # Class of committed instruction (Count)
system.cpu.commit.committedInstType_0::SimdMult            0      0.00%     77.57% # Class of committed instruction (Count)
system.cpu.commit.committedInstType_0::SimdMultAcc            0      0.00%     77.57% # Class of committed instruction (Count)
system.cpu.commit.committedInstType_0::SimdMatMultAcc            0      0.00%     77.57% # Class of committed instruction (Count)
system.cpu.commit.committedInstType_0::SimdShift         1859      0.00%     77.57% # Class of committed instruction (Count)
system.cpu.commit.committedInstType_0::SimdShiftAcc            0      0.00%     77.57% # Class of committed instruction (Count)
system.cpu.commit.committedInstType_0::SimdDiv            0      0.00%     77.57% # Class of committed instruction (Count)
system.cpu.commit.committedInstType_0::SimdSqrt            0      0.00%     77.57% # Class of committed instruction (Count)
system.cpu.commit.committedInstType_0::SimdFloatAdd          295      0.00%     77.57% # Class of committed instruction (Count)
system.cpu.commit.committedInstType_0::SimdFloatAlu            0      0.00%     77.57% # Class of committed instruction (Count)
system.cpu.commit.committedInstType_0::SimdFloatCmp            0      0.00%     77.57% # Class of committed instruction (Count)
system.cpu.commit.committedInstType_0::SimdFloatCvt    168226348      5.93%     83.50% # Class of committed instruction (Count)
system.cpu.commit.committedInstType_0::SimdFloatDiv       100279      0.00%     83.50% # Class of committed instruction (Count)
system.cpu.commit.committedInstType_0::SimdFloatMisc            0      0.00%     83.50% # Class of committed instruction (Count)
system.cpu.commit.committedInstType_0::SimdFloatMult            8      0.00%     83.50% # Class of committed instruction (Count)
system.cpu.commit.committedInstType_0::SimdFloatMultAcc            0      0.00%     83.50% # Class of committed instruction (Count)
system.cpu.commit.committedInstType_0::SimdFloatMatMultAcc            0      0.00%     83.50% # Class of committed instruction (Count)
system.cpu.commit.committedInstType_0::SimdFloatSqrt            0      0.00%     83.50% # Class of committed instruction (Count)
system.cpu.commit.committedInstType_0::SimdReduceAdd            0      0.00%     83.50% # Class of committed instruction (Count)
system.cpu.commit.committedInstType_0::SimdReduceAlu            0      0.00%     83.50% # Class of committed instruction (Count)
system.cpu.commit.committedInstType_0::SimdReduceCmp            0      0.00%     83.50% # Class of committed instruction (Count)
system.cpu.commit.committedInstType_0::SimdFloatReduceAdd            0      0.00%     83.50% # Class of committed instruction (Count)
system.cpu.commit.committedInstType_0::SimdFloatReduceCmp            0      0.00%     83.50% # Class of committed instruction (Count)
system.cpu.commit.committedInstType_0::SimdAes            0      0.00%     83.50% # Class of committed instruction (Count)
system.cpu.commit.committedInstType_0::SimdAesMix            0      0.00%     83.50% # Class of committed instruction (Count)
system.cpu.commit.committedInstType_0::SimdSha1Hash            0      0.00%     83.50% # Class of committed instruction (Count)
system.cpu.commit.committedInstType_0::SimdSha1Hash2            0      0.00%     83.50% # Class of committed instruction (Count)
system.cpu.commit.committedInstType_0::SimdSha256Hash            0      0.00%     83.50% # Class of committed instruction (Count)
system.cpu.commit.committedInstType_0::SimdSha256Hash2            0      0.00%     83.50% # Class of committed instruction (Count)
system.cpu.commit.committedInstType_0::SimdShaSigma2            0      0.00%     83.50% # Class of committed instruction (Count)
system.cpu.commit.committedInstType_0::SimdShaSigma3            0      0.00%     83.50% # Class of committed instruction (Count)
system.cpu.commit.committedInstType_0::SimdPredAlu            0      0.00%     83.50% # Class of committed instruction (Count)
system.cpu.commit.committedInstType_0::Matrix            0      0.00%     83.50% # Class of committed instruction (Count)
system.cpu.commit.committedInstType_0::MatrixMov            0      0.00%     83.50% # Class of committed instruction (Count)
system.cpu.commit.committedInstType_0::MatrixOP            0      0.00%     83.50% # Class of committed instruction (Count)
system.cpu.commit.committedInstType_0::MemRead    116513980      4.11%     87.61% # Class of committed instruction (Count)
system.cpu.commit.committedInstType_0::MemWrite     56250502      1.98%     89.59% # Class of committed instruction (Count)
system.cpu.commit.committedInstType_0::FloatMemRead    217725761      7.67%     97.27% # Class of committed instruction (Count)
system.cpu.commit.committedInstType_0::FloatMemWrite     77571245      2.73%    100.00% # Class of committed instruction (Count)
system.cpu.commit.committedInstType_0::IprAccess            0      0.00%    100.00% # Class of committed instruction (Count)
system.cpu.commit.committedInstType_0::InstPrefetch            0      0.00%    100.00% # Class of committed instruction (Count)
system.cpu.commit.committedInstType_0::SimdUnitStrideLoad            0      0.00%    100.00% # Class of committed instruction (Count)
system.cpu.commit.committedInstType_0::SimdUnitStrideStore            0      0.00%    100.00% # Class of committed instruction (Count)
system.cpu.commit.committedInstType_0::SimdUnitStrideMaskLoad            0      0.00%    100.00% # Class of committed instruction (Count)
system.cpu.commit.committedInstType_0::SimdUnitStrideMaskStore            0      0.00%    100.00% # Class of committed instruction (Count)
system.cpu.commit.committedInstType_0::SimdStridedLoad            0      0.00%    100.00% # Class of committed instruction (Count)
system.cpu.commit.committedInstType_0::SimdStridedStore            0      0.00%    100.00% # Class of committed instruction (Count)
system.cpu.commit.committedInstType_0::SimdIndexedLoad            0      0.00%    100.00% # Class of committed instruction (Count)
system.cpu.commit.committedInstType_0::SimdIndexedStore            0      0.00%    100.00% # Class of committed instruction (Count)
system.cpu.commit.committedInstType_0::SimdWholeRegisterLoad            0      0.00%    100.00% # Class of committed instruction (Count)
system.cpu.commit.committedInstType_0::SimdWholeRegisterStore            0      0.00%    100.00% # Class of committed instruction (Count)
system.cpu.commit.committedInstType_0::SimdUnitStrideFaultOnlyFirstLoad            0      0.00%    100.00% # Class of committed instruction (Count)
system.cpu.commit.committedInstType_0::SimdUnitStrideSegmentedLoad            0      0.00%    100.00% # Class of committed instruction (Count)
system.cpu.commit.committedInstType_0::SimdUnitStrideSegmentedStore            0      0.00%    100.00% # Class of committed instruction (Count)
system.cpu.commit.committedInstType_0::SimdExt            0      0.00%    100.00% # Class of committed instruction (Count)
system.cpu.commit.committedInstType_0::SimdFloatExt            0      0.00%    100.00% # Class of committed instruction (Count)
system.cpu.commit.committedInstType_0::SimdConfig            0      0.00%    100.00% # Class of committed instruction (Count)
system.cpu.commit.committedInstType_0::total   2837426030                       # Class of committed instruction (Count)
system.cpu.commit.commitEligibleSamples     121927226                       # number cycles where commit BW limit reached (Cycle)
system.cpu.commitStats0.numInsts           1615522804                       # Number of instructions committed (thread level) (Count)
system.cpu.commitStats0.numOps             2837426030                       # Number of ops (including micro ops) committed (thread level) (Count)
system.cpu.commitStats0.numInstsNotNOP     1615522804                       # Number of instructions committed excluding NOPs or prefetches (Count)
system.cpu.commitStats0.numOpsNotNOP       2837426030                       # Number of Ops (including micro ops) Simulated (Count)
system.cpu.commitStats0.cpi                  1.308655                       # CPI: cycles per instruction (thread level) ((Cycle/Count))
system.cpu.commitStats0.ipc                  0.764144                       # IPC: instructions per cycle (thread level) ((Count/Cycle))
system.cpu.commitStats0.numMemRefs          468061488                       # Number of memory references committed (Count)
system.cpu.commitStats0.numFpInsts          617546261                       # Number of float instructions (Count)
system.cpu.commitStats0.numIntInsts        2489769624                       # Number of integer instructions (Count)
system.cpu.commitStats0.numLoadInsts        334239741                       # Number of load instructions (Count)
system.cpu.commitStats0.numStoreInsts       133821747                       # Number of store instructions (Count)
system.cpu.commitStats0.numVecInsts                 0                       # Number of vector instructions (Count)
system.cpu.commitStats0.committedInstType::No_OpClass     20453483      0.72%      0.72% # Class of committed instruction. (Count)
system.cpu.commitStats0.committedInstType::IntAlu   2033123062     71.65%     72.37% # Class of committed instruction. (Count)
system.cpu.commitStats0.committedInstType::IntMult       844390      0.03%     72.40% # Class of committed instruction. (Count)
system.cpu.commitStats0.committedInstType::IntDiv        43547      0.00%     72.41% # Class of committed instruction. (Count)
system.cpu.commitStats0.committedInstType::FloatAdd    136402170      4.81%     77.21% # Class of committed instruction. (Count)
system.cpu.commitStats0.committedInstType::FloatCmp            0      0.00%     77.21% # Class of committed instruction. (Count)
system.cpu.commitStats0.committedInstType::FloatCvt         1472      0.00%     77.21% # Class of committed instruction. (Count)
system.cpu.commitStats0.committedInstType::FloatMult            0      0.00%     77.21% # Class of committed instruction. (Count)
system.cpu.commitStats0.committedInstType::FloatMultAcc            0      0.00%     77.21% # Class of committed instruction. (Count)
system.cpu.commitStats0.committedInstType::FloatDiv            0      0.00%     77.21% # Class of committed instruction. (Count)
system.cpu.commitStats0.committedInstType::FloatMisc            0      0.00%     77.21% # Class of committed instruction. (Count)
system.cpu.commitStats0.committedInstType::FloatSqrt            0      0.00%     77.21% # Class of committed instruction. (Count)
system.cpu.commitStats0.committedInstType::SimdAdd         6894      0.00%     77.21% # Class of committed instruction. (Count)
system.cpu.commitStats0.committedInstType::SimdAddAcc            0      0.00%     77.21% # Class of committed instruction. (Count)
system.cpu.commitStats0.committedInstType::SimdAlu      1004391      0.04%     77.25% # Class of committed instruction. (Count)
system.cpu.commitStats0.committedInstType::SimdCmp            6      0.00%     77.25% # Class of committed instruction. (Count)
system.cpu.commitStats0.committedInstType::SimdCvt        62554      0.00%     77.25% # Class of committed instruction. (Count)
system.cpu.commitStats0.committedInstType::SimdMisc      9093784      0.32%     77.57% # Class of committed instruction. (Count)
system.cpu.commitStats0.committedInstType::SimdMult            0      0.00%     77.57% # Class of committed instruction. (Count)
system.cpu.commitStats0.committedInstType::SimdMultAcc            0      0.00%     77.57% # Class of committed instruction. (Count)
system.cpu.commitStats0.committedInstType::SimdMatMultAcc            0      0.00%     77.57% # Class of committed instruction. (Count)
system.cpu.commitStats0.committedInstType::SimdShift         1859      0.00%     77.57% # Class of committed instruction. (Count)
system.cpu.commitStats0.committedInstType::SimdShiftAcc            0      0.00%     77.57% # Class of committed instruction. (Count)
system.cpu.commitStats0.committedInstType::SimdDiv            0      0.00%     77.57% # Class of committed instruction. (Count)
system.cpu.commitStats0.committedInstType::SimdSqrt            0      0.00%     77.57% # Class of committed instruction. (Count)
system.cpu.commitStats0.committedInstType::SimdFloatAdd          295      0.00%     77.57% # Class of committed instruction. (Count)
system.cpu.commitStats0.committedInstType::SimdFloatAlu            0      0.00%     77.57% # Class of committed instruction. (Count)
system.cpu.commitStats0.committedInstType::SimdFloatCmp            0      0.00%     77.57% # Class of committed instruction. (Count)
system.cpu.commitStats0.committedInstType::SimdFloatCvt    168226348      5.93%     83.50% # Class of committed instruction. (Count)
system.cpu.commitStats0.committedInstType::SimdFloatDiv       100279      0.00%     83.50% # Class of committed instruction. (Count)
system.cpu.commitStats0.committedInstType::SimdFloatMisc            0      0.00%     83.50% # Class of committed instruction. (Count)
system.cpu.commitStats0.committedInstType::SimdFloatMult            8      0.00%     83.50% # Class of committed instruction. (Count)
system.cpu.commitStats0.committedInstType::SimdFloatMultAcc            0      0.00%     83.50% # Class of committed instruction. (Count)
system.cpu.commitStats0.committedInstType::SimdFloatMatMultAcc            0      0.00%     83.50% # Class of committed instruction. (Count)
system.cpu.commitStats0.committedInstType::SimdFloatSqrt            0      0.00%     83.50% # Class of committed instruction. (Count)
system.cpu.commitStats0.committedInstType::SimdReduceAdd            0      0.00%     83.50% # Class of committed instruction. (Count)
system.cpu.commitStats0.committedInstType::SimdReduceAlu            0      0.00%     83.50% # Class of committed instruction. (Count)
system.cpu.commitStats0.committedInstType::SimdReduceCmp            0      0.00%     83.50% # Class of committed instruction. (Count)
system.cpu.commitStats0.committedInstType::SimdFloatReduceAdd            0      0.00%     83.50% # Class of committed instruction. (Count)
system.cpu.commitStats0.committedInstType::SimdFloatReduceCmp            0      0.00%     83.50% # Class of committed instruction. (Count)
system.cpu.commitStats0.committedInstType::SimdAes            0      0.00%     83.50% # Class of committed instruction. (Count)
system.cpu.commitStats0.committedInstType::SimdAesMix            0      0.00%     83.50% # Class of committed instruction. (Count)
system.cpu.commitStats0.committedInstType::SimdSha1Hash            0      0.00%     83.50% # Class of committed instruction. (Count)
system.cpu.commitStats0.committedInstType::SimdSha1Hash2            0      0.00%     83.50% # Class of committed instruction. (Count)
system.cpu.commitStats0.committedInstType::SimdSha256Hash            0      0.00%     83.50% # Class of committed instruction. (Count)
system.cpu.commitStats0.committedInstType::SimdSha256Hash2            0      0.00%     83.50% # Class of committed instruction. (Count)
system.cpu.commitStats0.committedInstType::SimdShaSigma2            0      0.00%     83.50% # Class of committed instruction. (Count)
system.cpu.commitStats0.committedInstType::SimdShaSigma3            0      0.00%     83.50% # Class of committed instruction. (Count)
system.cpu.commitStats0.committedInstType::SimdPredAlu            0      0.00%     83.50% # Class of committed instruction. (Count)
system.cpu.commitStats0.committedInstType::Matrix            0      0.00%     83.50% # Class of committed instruction. (Count)
system.cpu.commitStats0.committedInstType::MatrixMov            0      0.00%     83.50% # Class of committed instruction. (Count)
system.cpu.commitStats0.committedInstType::MatrixOP            0      0.00%     83.50% # Class of committed instruction. (Count)
system.cpu.commitStats0.committedInstType::MemRead    116513980      4.11%     87.61% # Class of committed instruction. (Count)
system.cpu.commitStats0.committedInstType::MemWrite     56250502      1.98%     89.59% # Class of committed instruction. (Count)
system.cpu.commitStats0.committedInstType::FloatMemRead    217725761      7.67%     97.27% # Class of committed instruction. (Count)
system.cpu.commitStats0.committedInstType::FloatMemWrite     77571245      2.73%    100.00% # Class of committed instruction. (Count)
system.cpu.commitStats0.committedInstType::IprAccess            0      0.00%    100.00% # Class of committed instruction. (Count)
system.cpu.commitStats0.committedInstType::InstPrefetch            0      0.00%    100.00% # Class of committed instruction. (Count)
system.cpu.commitStats0.committedInstType::SimdUnitStrideLoad            0      0.00%    100.00% # Class of committed instruction. (Count)
system.cpu.commitStats0.committedInstType::SimdUnitStrideStore            0      0.00%    100.00% # Class of committed instruction. (Count)
system.cpu.commitStats0.committedInstType::SimdUnitStrideMaskLoad            0      0.00%    100.00% # Class of committed instruction. (Count)
system.cpu.commitStats0.committedInstType::SimdUnitStrideMaskStore            0      0.00%    100.00% # Class of committed instruction. (Count)
system.cpu.commitStats0.committedInstType::SimdStridedLoad            0      0.00%    100.00% # Class of committed instruction. (Count)
system.cpu.commitStats0.committedInstType::SimdStridedStore            0      0.00%    100.00% # Class of committed instruction. (Count)
system.cpu.commitStats0.committedInstType::SimdIndexedLoad            0      0.00%    100.00% # Class of committed instruction. (Count)
system.cpu.commitStats0.committedInstType::SimdIndexedStore            0      0.00%    100.00% # Class of committed instruction. (Count)
system.cpu.commitStats0.committedInstType::SimdWholeRegisterLoad            0      0.00%    100.00% # Class of committed instruction. (Count)
system.cpu.commitStats0.committedInstType::SimdWholeRegisterStore            0      0.00%    100.00% # Class of committed instruction. (Count)
system.cpu.commitStats0.committedInstType::SimdUnitStrideFaultOnlyFirstLoad            0      0.00%    100.00% # Class of committed instruction. (Count)
system.cpu.commitStats0.committedInstType::SimdUnitStrideSegmentedLoad            0      0.00%    100.00% # Class of committed instruction. (Count)
system.cpu.commitStats0.committedInstType::SimdUnitStrideSegmentedStore            0      0.00%    100.00% # Class of committed instruction. (Count)
system.cpu.commitStats0.committedInstType::SimdExt            0      0.00%    100.00% # Class of committed instruction. (Count)
system.cpu.commitStats0.committedInstType::SimdFloatExt            0      0.00%    100.00% # Class of committed instruction. (Count)
system.cpu.commitStats0.committedInstType::SimdConfig            0      0.00%    100.00% # Class of committed instruction. (Count)
system.cpu.commitStats0.committedInstType::total   2837426030                       # Class of committed instruction. (Count)
system.cpu.commitStats0.committedControl::IsControl    291218722                       # Class of control type instructions committed (Count)
system.cpu.commitStats0.committedControl::IsDirectControl    286409566                       # Class of control type instructions committed (Count)
system.cpu.commitStats0.committedControl::IsIndirectControl      4808842                       # Class of control type instructions committed (Count)
system.cpu.commitStats0.committedControl::IsCondControl    266890197                       # Class of control type instructions committed (Count)
system.cpu.commitStats0.committedControl::IsUncondControl     24328211                       # Class of control type instructions committed (Count)
system.cpu.commitStats0.committedControl::IsCall      3218422                       # Class of control type instructions committed (Count)
system.cpu.commitStats0.committedControl::IsReturn      3218417                       # Class of control type instructions committed (Count)
system.cpu.decode.idleCycles                226703371                       # Number of cycles decode is idle (Cycle)
system.cpu.decode.blockedCycles            1146376840                       # Number of cycles decode is blocked (Cycle)
system.cpu.decode.runCycles                 466113134                       # Number of cycles decode is running (Cycle)
system.cpu.decode.unblockCycles             230190747                       # Number of cycles decode is unblocking (Cycle)
system.cpu.decode.squashCycles               38224882                       # Number of cycles decode is squashing (Cycle)
system.cpu.decode.branchResolved            388336452                       # Number of times decode resolved a branch (Count)
system.cpu.decode.branchMispred                  9952                       # Number of times decode detected a branch misprediction (Count)
system.cpu.decode.decodedInsts             5143185390                       # Number of instructions handled by decode (Count)
system.cpu.decode.squashedInsts                 45570                       # Number of squashed instructions handled by decode (Count)
system.cpu.executeStats0.numInsts          3812571094                       # Number of executed instructions (Count)
system.cpu.executeStats0.numNop                     0                       # Number of nop insts executed (Count)
system.cpu.executeStats0.numBranches        355797466                       # Number of branches executed (Count)
system.cpu.executeStats0.numLoadInsts       429232909                       # Number of load instructions executed (Count)
system.cpu.executeStats0.numStoreInsts      178692156                       # Number of stores executed (Count)
system.cpu.executeStats0.instRate            1.803349                       # Inst execution rate ((Count/Cycle))
system.cpu.executeStats0.numCCRegReads     2843948361                       # Number of times the CC registers were read (Count)
system.cpu.executeStats0.numCCRegWrites    1732095340                       # Number of times the CC registers were written (Count)
system.cpu.executeStats0.numFpRegReads      606054783                       # Number of times the floating registers were read (Count)
system.cpu.executeStats0.numFpRegWrites     584870217                       # Number of times the floating registers were written (Count)
system.cpu.executeStats0.numIntRegReads    3723766345                       # Number of times the integer registers were read (Count)
system.cpu.executeStats0.numIntRegWrites   2234929268                       # Number of times the integer registers were written (Count)
system.cpu.executeStats0.numMemRefs         607925065                       # Number of memory refs (Count)
system.cpu.executeStats0.numMiscRegReads   1393587296                       # Number of times the Misc registers were read (Count)
system.cpu.executeStats0.numMiscRegWrites          828                       # Number of times the Misc registers were written (Count)
system.cpu.executeStats0.numVecAluAccesses            0                       # Number of vector alu accesses (Count)
system.cpu.executeStats0.numDiscardedOps            0                       # Number of ops (including micro ops) which were discarded before commit (Count)
system.cpu.fetch.predictedBranches          453062267                       # Number of branches that fetch has predicted taken (Count)
system.cpu.fetch.cycles                    1968954729                       # Number of cycles fetch has run and was not squashing or blocked (Cycle)
system.cpu.fetch.squashCycles                76469572                       # Number of cycles fetch has spent squashing (Cycle)
system.cpu.fetch.miscStallCycles                 1059                       # Number of cycles fetch has spent waiting on interrupts, or bad addresses, or out of MSHRs (Cycle)
system.cpu.fetch.pendingTrapStallCycles          7782                       # Number of stall cycles due to pending traps (Cycle)
system.cpu.fetch.cacheLines                 252935911                       # Number of cache lines fetched (Count)
[...]
system.mem_ctrl.dram.numReads::cpu.l1d.prefetcher        74131                       # Number of read requests responded to by this memory (Count)
system.mem_ctrl.dram.numReads::total            80360                       # Number of read requests responded to by this memory (Count)
system.mem_ctrl.dram.numWrites::writebacks        51569                       # Number of write requests responded to by this memory (Count)
system.mem_ctrl.dram.numWrites::total           51569                       # Number of write requests responded to by this memory (Count)
system.mem_ctrl.dram.bwRead::cpu.inst        12549935                       # Total read bandwidth from this memory ((Byte/Second))
system.mem_ctrl.dram.bwRead::cpu.data        20268514                       # Total read bandwidth from this memory ((Byte/Second))
system.mem_ctrl.dram.bwRead::cpu.l1d.prefetcher    390570623                       # Total read bandwidth from this memory ((Byte/Second))
system.mem_ctrl.dram.bwRead::total          423389072                       # Total read bandwidth from this memory ((Byte/Second))
system.mem_ctrl.dram.bwInstRead::cpu.inst     12549935                       # Instruction read bandwidth from this memory ((Byte/Second))
system.mem_ctrl.dram.bwInstRead::total       12549935                       # Instruction read bandwidth from this memory ((Byte/Second))
system.mem_ctrl.dram.bwWrite::writebacks    271699241                       # Write bandwidth from this memory ((Byte/Second))
system.mem_ctrl.dram.bwWrite::total         271699241                       # Write bandwidth from this memory ((Byte/Second))
system.mem_ctrl.dram.bwTotal::writebacks    271699241                       # Total bandwidth to/from this memory ((Byte/Second))
system.mem_ctrl.dram.bwTotal::cpu.inst       12549935                       # Total bandwidth to/from this memory ((Byte/Second))
system.mem_ctrl.dram.bwTotal::cpu.data       20268514                       # Total bandwidth to/from this memory ((Byte/Second))
system.mem_ctrl.dram.bwTotal::cpu.l1d.prefetcher    390570623                       # Total bandwidth to/from this memory ((Byte/Second))
system.mem_ctrl.dram.bwTotal::total         695088313                       # Total bandwidth to/from this memory ((Byte/Second))
system.mem_ctrl.dram.readBursts                 80233                       # Number of DRAM read bursts (Count)
system.mem_ctrl.dram.writeBursts                51561                       # Number of DRAM write bursts (Count)
system.mem_ctrl.dram.perBankRdBursts::0          4805                       # Per bank write bursts (Count)
system.mem_ctrl.dram.perBankRdBursts::1          4698                       # Per bank write bursts (Count)
system.mem_ctrl.dram.perBankRdBursts::2          4801                       # Per bank write bursts (Count)
system.mem_ctrl.dram.perBankRdBursts::3          4724                       # Per bank write bursts (Count)
system.mem_ctrl.dram.perBankRdBursts::4          4905                       # Per bank write bursts (Count)
system.mem_ctrl.dram.perBankRdBursts::5          5130                       # Per bank write bursts (Count)
system.mem_ctrl.dram.perBankRdBursts::6          5469                       # Per bank write bursts (Count)
system.mem_ctrl.dram.perBankRdBursts::7          5876                       # Per bank write bursts (Count)
system.mem_ctrl.dram.perBankRdBursts::8          4825                       # Per bank write bursts (Count)
system.mem_ctrl.dram.perBankRdBursts::9          4960                       # Per bank write bursts (Count)
system.mem_ctrl.dram.perBankRdBursts::10         4942                       # Per bank write bursts (Count)
system.mem_ctrl.dram.perBankRdBursts::11         5161                       # Per bank write bursts (Count)
system.mem_ctrl.dram.perBankRdBursts::12         5219                       # Per bank write bursts (Count)
system.mem_ctrl.dram.perBankRdBursts::13         5034                       # Per bank write bursts (Count)
system.mem_ctrl.dram.perBankRdBursts::14         4827                       # Per bank write bursts (Count)
system.mem_ctrl.dram.perBankRdBursts::15         4857                       # Per bank write bursts (Count)
system.mem_ctrl.dram.perBankWrBursts::0          3197                       # Per bank write bursts (Count)
system.mem_ctrl.dram.perBankWrBursts::1          3165                       # Per bank write bursts (Count)
system.mem_ctrl.dram.perBankWrBursts::2          3159                       # Per bank write bursts (Count)
system.mem_ctrl.dram.perBankWrBursts::3          3077                       # Per bank write bursts (Count)
system.mem_ctrl.dram.perBankWrBursts::4          3073                       # Per bank write bursts (Count)
system.mem_ctrl.dram.perBankWrBursts::5          3182                       # Per bank write bursts (Count)
system.mem_ctrl.dram.perBankWrBursts::6          3113                       # Per bank write bursts (Count)
system.mem_ctrl.dram.perBankWrBursts::7          3933                       # Per bank write bursts (Count)
system.mem_ctrl.dram.perBankWrBursts::8          3100                       # Per bank write bursts (Count)
system.mem_ctrl.dram.perBankWrBursts::9          3077                       # Per bank write bursts (Count)
system.mem_ctrl.dram.perBankWrBursts::10         3223                       # Per bank write bursts (Count)
system.mem_ctrl.dram.perBankWrBursts::11         3226                       # Per bank write bursts (Count)
system.mem_ctrl.dram.perBankWrBursts::12         3425                       # Per bank write bursts (Count)
system.mem_ctrl.dram.perBankWrBursts::13         3206                       # Per bank write bursts (Count)
system.mem_ctrl.dram.perBankWrBursts::14         3202                       # Per bank write bursts (Count)
system.mem_ctrl.dram.perBankWrBursts::15         3203                       # Per bank write bursts (Count)
system.mem_ctrl.dram.totQLat                870496843                       # Total ticks spent queuing (Tick)
system.mem_ctrl.dram.totBusLat              401165000                       # Total ticks spent in databus transfers (Tick)
system.mem_ctrl.dram.totMemAccLat          2374865593                       # Total ticks spent from burst creation until serviced by the DRAM (Tick)
system.mem_ctrl.dram.avgQLat                 10849.61                       # Average queueing delay per DRAM burst ((Tick/Count))
system.mem_ctrl.dram.avgBusLat                5000.00                       # Average bus latency per DRAM burst ((Tick/Count))
system.mem_ctrl.dram.avgMemAccLat            29599.61                       # Average memory access latency per DRAM burst ((Tick/Count))
system.mem_ctrl.dram.readRowHits                70183                       # Number of row buffer hits during reads (Count)
system.mem_ctrl.dram.writeRowHits               46356                       # Number of row buffer hits during writes (Count)
system.mem_ctrl.dram.readRowHitRate             87.47                       # Row buffer hit rate for reads (Ratio)
system.mem_ctrl.dram.writeRowHitRate            89.91                       # Row buffer hit rate for writes (Ratio)
system.mem_ctrl.dram.bytesPerActivate::samples        15256                       # Bytes accessed per row activation (Byte)
system.mem_ctrl.dram.bytesPerActivate::mean   552.910330                       # Bytes accessed per row activation (Byte)
system.mem_ctrl.dram.bytesPerActivate::gmean   341.803940                       # Bytes accessed per row activation (Byte)
system.mem_ctrl.dram.bytesPerActivate::stdev   415.959509                       # Bytes accessed per row activation (Byte)
system.mem_ctrl.dram.bytesPerActivate::0-127         3259     21.36%     21.36% # Bytes accessed per row activation (Byte)
system.mem_ctrl.dram.bytesPerActivate::128-255         2445     16.03%     37.39% # Bytes accessed per row activation (Byte)
system.mem_ctrl.dram.bytesPerActivate::256-383         1222      8.01%     45.40% # Bytes accessed per row activation (Byte)
system.mem_ctrl.dram.bytesPerActivate::384-511          654      4.29%     49.69% # Bytes accessed per row activation (Byte)
system.mem_ctrl.dram.bytesPerActivate::512-639          584      3.83%     53.51% # Bytes accessed per row activation (Byte)
system.mem_ctrl.dram.bytesPerActivate::640-767          448      2.94%     56.45% # Bytes accessed per row activation (Byte)
system.mem_ctrl.dram.bytesPerActivate::768-895          505      3.31%     59.76% # Bytes accessed per row activation (Byte)
system.mem_ctrl.dram.bytesPerActivate::896-1023          611      4.00%     63.77% # Bytes accessed per row activation (Byte)
system.mem_ctrl.dram.bytesPerActivate::1024-1151         5528     36.23%    100.00% # Bytes accessed per row activation (Byte)
system.mem_ctrl.dram.bytesPerActivate::total        15256                       # Bytes accessed per row activation (Byte)
system.mem_ctrl.dram.dramBytesRead            5134912                       # Total bytes read (Byte)
system.mem_ctrl.dram.dramBytesWritten         3299904                       # Total bytes written (Byte)
system.mem_ctrl.dram.avgRdBW               422.719953                       # Average DRAM read bandwidth in MiBytes/s ((Byte/Second))
system.mem_ctrl.dram.avgWrBW               271.657092                       # Average DRAM write bandwidth in MiBytes/s ((Byte/Second))
system.mem_ctrl.dram.peakBW                  12800.00                       # Theoretical peak bandwidth in MiByte/s ((Byte/Second))
system.mem_ctrl.dram.busUtil                     5.42                       # Data bus utilization in percentage (Ratio)
system.mem_ctrl.dram.busUtilRead                 3.30                       # Data bus utilization in percentage for reads (Ratio)
system.mem_ctrl.dram.busUtilWrite                2.12                       # Data bus utilization in percentage for writes (Ratio)
system.mem_ctrl.dram.pageHitRate                88.43                       # Row buffer hit rate, read and write combined (Ratio)
system.mem_ctrl.dram.power_state.pwrStateResidencyTicks::UNDEFINED  12147314000                       # Cumulative time (in ticks) in various power states (Tick)
system.mem_ctrl.dram.rank0.actEnergy         55791960                       # Energy for activate commands per rank (pJ) (Joule)
system.mem_ctrl.dram.rank0.preEnergy         29654130                       # Energy for precharge commands per rank (pJ) (Joule)
system.mem_ctrl.dram.rank0.readEnergy       288513120                       # Energy for read commands per rank (pJ) (Joule)
system.mem_ctrl.dram.rank0.writeEnergy      135192780                       # Energy for write commands per rank (pJ) (Joule)
system.mem_ctrl.dram.rank0.refreshEnergy 958838400.000000                       # Energy for refresh commands per rank (pJ) (Joule)
system.mem_ctrl.dram.rank0.actBackEnergy   4530865590                       # Energy for active background per rank (pJ) (Joule)
system.mem_ctrl.dram.rank0.preBackEnergy    849102720                       # Energy for precharge background per rank (pJ) (Joule)
system.mem_ctrl.dram.rank0.actPowerDownEnergy            0                       # Energy for active power-down per rank (pJ) (Joule)
system.mem_ctrl.dram.rank0.prePowerDownEnergy            0                       # Energy for precharge power-down per rank (pJ) (Joule)
system.mem_ctrl.dram.rank0.selfRefreshEnergy            0                       # Energy for self refresh per rank (pJ) (Joule)
system.mem_ctrl.dram.rank0.totalEnergy     6847958700                       # Total energy per rank (pJ) (Joule)
system.mem_ctrl.dram.rank0.averagePower    563.742627                       # Core power per rank (mW) (Watt)
system.mem_ctrl.dram.rank0.totalIdleTime            0                       # Total Idle time Per DRAM Rank (Tick)
system.mem_ctrl.dram.rank0.pwrStateTime::IDLE   2159902221                       # Time in different power states (Tick)
system.mem_ctrl.dram.rank0.pwrStateTime::REF    405600000                       # Time in different power states (Tick)
system.mem_ctrl.dram.rank0.pwrStateTime::SREF            0                       # Time in different power states (Tick)
system.mem_ctrl.dram.rank0.pwrStateTime::PRE_PDN            0                       # Time in different power states (Tick)
system.mem_ctrl.dram.rank0.pwrStateTime::ACT   9581811779                       # Time in different power states (Tick)
system.mem_ctrl.dram.rank0.pwrStateTime::ACT_PDN            0                       # Time in different power states (Tick)
system.mem_ctrl.dram.rank1.actEnergy         53128740                       # Energy for activate commands per rank (pJ) (Joule)
system.mem_ctrl.dram.rank1.preEnergy         28242390                       # Energy for precharge commands per rank (pJ) (Joule)
system.mem_ctrl.dram.rank1.readEnergy       284350500                       # Energy for read commands per rank (pJ) (Joule)
system.mem_ctrl.dram.rank1.writeEnergy      133955640                       # Energy for write commands per rank (pJ) (Joule)
system.mem_ctrl.dram.rank1.refreshEnergy 958838400.000000                       # Energy for refresh commands per rank (pJ) (Joule)
system.mem_ctrl.dram.rank1.actBackEnergy   4475555640                       # Energy for active background per rank (pJ) (Joule)
system.mem_ctrl.dram.rank1.preBackEnergy    895679520                       # Energy for precharge background per rank (pJ) (Joule)
system.mem_ctrl.dram.rank1.actPowerDownEnergy            0                       # Energy for active power-down per rank (pJ) (Joule)
system.mem_ctrl.dram.rank1.prePowerDownEnergy            0                       # Energy for precharge power-down per rank (pJ) (Joule)
system.mem_ctrl.dram.rank1.selfRefreshEnergy            0                       # Energy for self refresh per rank (pJ) (Joule)
system.mem_ctrl.dram.rank1.totalEnergy     6829750830                       # Total energy per rank (pJ) (Joule)
system.mem_ctrl.dram.rank1.averagePower    562.243705                       # Core power per rank (mW) (Watt)
system.mem_ctrl.dram.rank1.totalIdleTime            0                       # Total Idle time Per DRAM Rank (Tick)
system.mem_ctrl.dram.rank1.pwrStateTime::IDLE   2278867259                       # Time in different power states (Tick)
system.mem_ctrl.dram.rank1.pwrStateTime::REF    405600000                       # Time in different power states (Tick)
system.mem_ctrl.dram.rank1.pwrStateTime::SREF            0                       # Time in different power states (Tick)
system.mem_ctrl.dram.rank1.pwrStateTime::PRE_PDN            0                       # Time in different power states (Tick)
system.mem_ctrl.dram.rank1.pwrStateTime::ACT   9462846741                       # Time in different power states (Tick)
system.mem_ctrl.dram.rank1.pwrStateTime::ACT_PDN            0                       # Time in different power states (Tick)
system.mem_ctrl.power_state.pwrStateResidencyTicks::UNDEFINED  12147314000                       # Cumulative time (in ticks) in various power states (Tick)
system.membus.transDist::ReadResp               79988                       # Transaction distribution (Count)
system.membus.transDist::WritebackDirty         51569                       # Transaction distribution (Count)
system.membus.transDist::CleanEvict             28790                       # Transaction distribution (Count)
system.membus.transDist::ReadExReq                372                       # Transaction distribution (Count)
system.membus.transDist::ReadExResp               372                       # Transaction distribution (Count)
system.membus.transDist::ReadSharedReq          79988                       # Transaction distribution (Count)
system.membus.pktCount_system.l2_cache.mem_side_port::system.mem_ctrl.port       241079                       # Packet count per connected requestor and responder (Count)
system.membus.pktCount_system.l2_cache.mem_side_port::total       241079                       # Packet count per connected requestor and responder (Count)
system.membus.pktCount::total                  241079                       # Packet count per connected requestor and responder (Count)
system.membus.pktSize_system.l2_cache.mem_side_port::system.mem_ctrl.port      8443456                       # Cumulative packet size per connected requestor and responder (Byte)
system.membus.pktSize_system.l2_cache.mem_side_port::total      8443456                       # Cumulative packet size per connected requestor and responder (Byte)
system.membus.pktSize::total                  8443456                       # Cumulative packet size per connected requestor and responder (Byte)
system.membus.snoops                                0                       # Total snoops (Count)
system.membus.snoopTraffic                          0                       # Total snoop traffic (Byte)
system.membus.snoopFanout::samples              80360                       # Request fanout histogram (Count)
system.membus.snoopFanout::mean                     0                       # Request fanout histogram (Count)
system.membus.snoopFanout::stdev                    0                       # Request fanout histogram (Count)
system.membus.snoopFanout::underflows               0      0.00%      0.00% # Request fanout histogram (Count)
system.membus.snoopFanout::0                    80360    100.00%    100.00% # Request fanout histogram (Count)
system.membus.snoopFanout::1                        0      0.00%    100.00% # Request fanout histogram (Count)
system.membus.snoopFanout::overflows                0      0.00%    100.00% # Request fanout histogram (Count)
system.membus.snoopFanout::min_value                0                       # Request fanout histogram (Count)
system.membus.snoopFanout::max_value                0                       # Request fanout histogram (Count)
system.membus.snoopFanout::total                80360                       # Request fanout histogram (Count)
system.membus.power_state.pwrStateResidencyTicks::UNDEFINED  12147314000                       # Cumulative time (in ticks) in various power states (Tick)
system.membus.reqLayer2.occupancy           367009794                       # Layer occupancy (ticks) (Tick)
system.membus.reqLayer2.utilization               0.0                       # Layer utilization (Ratio)
system.membus.respLayer2.occupancy          421370064                       # Layer occupancy (ticks) (Tick)
system.membus.respLayer2.utilization              0.0                       # Layer utilization (Ratio)
system.membus.snoop_filter.totRequests         160719                       # Total number of requests made to the snoop filter. (Count)
system.membus.snoop_filter.hitSingleRequests        80359                       # Number of requests hitting in the snoop filter with a single holder of the requested data. (Count)
system.membus.snoop_filter.hitMultiRequests            0                       # Number of requests hitting in the snoop filter with multiple (>1) holders of the requested data. (Count)
system.membus.snoop_filter.totSnoops                0                       # Total number of snoops made to the snoop filter. (Count)
system.membus.snoop_filter.hitSingleSnoops            0                       # Number of snoops hitting in the snoop filter with a single holder of the requested data. (Count)
system.membus.snoop_filter.hitMultiSnoops            0                       # Number of snoops hitting in the snoop filter with multiple (>1) holders of the requested data. (Count)
system.workload.inst.arm                            0                       # number of arm instructions executed (Count)
system.workload.inst.quiesce                        0                       # number of quiesce instructions executed (Count)

---------- End Simulation Statistics   ----------
