
---------- Begin Simulation Statistics ----------
simSeconds                                   1.030680                       # Number of seconds simulated (Second)
simTicks                                 1030680048000                       # Number of ticks simulated (Tick)
finalTick                                1030680048000                       # Number of ticks from beginning of simulation (restored from checkpoints and never reset) (Tick)
simFreq                                  1000000000000                       # The number of ticks per simulated second ((Tick/Second))
hostSeconds                                    492.19                       # Real time elapsed on the host (Second)
hostTickRate                               2094085378                       # The number of ticks simulated per host second (ticks/s) ((Tick/Second))
hostMemory                                    8619292                       # Number of bytes of host memory used (Byte)
simInsts                                    384033760                       # Number of instructions simulated (Count)
simOps                                      878152966                       # Number of ops (including micro ops) simulated (Count)
hostInstRate                                   780261                       # Simulator instruction rate (inst/s) ((Count/Second))
hostOpRate                                    1784188                       # Simulator op (including micro ops) rate (op/s) ((Count/Second))
system.clk_domain.clock                          1000                       # Clock period in ticks (Tick)
system.clk_domain.voltage_domain.voltage            1                       # Voltage in Volts (Volt)
system.cpu.numCycles                       1030680048                       # Number of cpu cycles simulated (Cycle)
system.cpu.cpi                               2.683823                       # CPI: cycles per instruction (core level) ((Cycle/Count))
system.cpu.ipc                               0.372603                       # IPC: instructions per cycle (core level) ((Count/Cycle))
system.cpu.numWorkItemsStarted                      0                       # Number of work items this cpu started (Count)
system.cpu.numWorkItemsCompleted                    0                       # Number of work items this cpu completed (Count)
system.cpu.commitStats0.numInsts            384034355                       # Number of instructions committed (thread level) (Count)
system.cpu.commitStats0.numOps              878153911                       # Number of ops (including micro ops) committed (thread level) (Count)
system.cpu.commitStats0.numInstsNotNOP              0                       # Number of instructions committed excluding NOPs or prefetches (Count)
system.cpu.commitStats0.numOpsNotNOP                0                       # Number of Ops (including micro ops) Simulated (Count)
system.cpu.commitStats0.cpi                  2.683823                       # CPI: cycles per instruction (thread level) ((Cycle/Count))
system.cpu.commitStats0.ipc                  0.372603                       # IPC: instructions per cycle (thread level) ((Count/Cycle))
system.cpu.commitStats0.numMemRefs                  0                       # Number of memory references committed (Count)
system.cpu.commitStats0.numFpInsts           26176477                       # Number of float instructions (Count)
system.cpu.commitStats0.numIntInsts         808801152                       # Number of integer instructions (Count)
system.cpu.commitStats0.numLoadInsts         90920369                       # Number of load instructions (Count)
system.cpu.commitStats0.numStoreInsts        94521981                       # Number of store instructions (Count)
system.cpu.commitStats0.numVecInsts                 0                       # Number of vector instructions (Count)
system.cpu.commitStats0.committedInstType::No_OpClass     15313596      1.74%      1.74% # Class of committed instruction. (Count)
system.cpu.commitStats0.committedInstType::IntAlu    651877187     74.23%     75.98% # Class of committed instruction. (Count)
system.cpu.commitStats0.committedInstType::IntMult          160      0.00%     75.98% # Class of committed instruction. (Count)
system.cpu.commitStats0.committedInstType::IntDiv     13741781      1.56%     77.54% # Class of committed instruction. (Count)
system.cpu.commitStats0.committedInstType::FloatAdd      1020343      0.12%     77.66% # Class of committed instruction. (Count)
system.cpu.commitStats0.committedInstType::FloatCmp            0      0.00%     77.66% # Class of committed instruction. (Count)
system.cpu.commitStats0.committedInstType::FloatCvt         1248      0.00%     77.66% # Class of committed instruction. (Count)
system.cpu.commitStats0.committedInstType::FloatMult            0      0.00%     77.66% # Class of committed instruction. (Count)
system.cpu.commitStats0.committedInstType::FloatMultAcc            0      0.00%     77.66% # Class of committed instruction. (Count)
system.cpu.commitStats0.committedInstType::FloatDiv            0      0.00%     77.66% # Class of committed instruction. (Count)
system.cpu.commitStats0.committedInstType::FloatMisc            0      0.00%     77.66% # Class of committed instruction. (Count)
system.cpu.commitStats0.committedInstType::FloatSqrt            0      0.00%     77.66% # Class of committed instruction. (Count)
system.cpu.commitStats0.committedInstType::SimdAdd       796896      0.09%     77.75% # Class of committed instruction. (Count)
system.cpu.commitStats0.committedInstType::SimdAddAcc            0      0.00%     77.75% # Class of committed instruction. (Count)
system.cpu.commitStats0.committedInstType::SimdAlu      4782263      0.54%     78.29% # Class of committed instruction. (Count)
system.cpu.commitStats0.committedInstType::SimdCmp         2688      0.00%     78.29% # Class of committed instruction. (Count)
system.cpu.commitStats0.committedInstType::SimdCvt      2133268      0.24%     78.54% # Class of committed instruction. (Count)
system.cpu.commitStats0.committedInstType::SimdMisc      2653437      0.30%     78.84% # Class of committed instruction. (Count)
system.cpu.commitStats0.committedInstType::SimdMult            0      0.00%     78.84% # Class of committed instruction. (Count)
system.cpu.commitStats0.committedInstType::SimdMultAcc            0      0.00%     78.84% # Class of committed instruction. (Count)
system.cpu.commitStats0.committedInstType::SimdMatMultAcc            0      0.00%     78.84% # Class of committed instruction. (Count)
system.cpu.commitStats0.committedInstType::SimdShift       388220      0.04%     78.88% # Class of committed instruction. (Count)
system.cpu.commitStats0.committedInstType::SimdShiftAcc            0      0.00%     78.88% # Class of committed instruction. (Count)
system.cpu.commitStats0.committedInstType::SimdDiv            0      0.00%     78.88% # Class of committed instruction. (Count)
system.cpu.commitStats0.committedInstType::SimdSqrt            0      0.00%     78.88% # Class of committed instruction. (Count)
system.cpu.commitStats0.committedInstType::SimdFloatAdd           68      0.00%     78.88% # Class of committed instruction. (Count)
system.cpu.commitStats0.committedInstType::SimdFloatAlu            0      0.00%     78.88% # Class of committed instruction. (Count)
system.cpu.commitStats0.committedInstType::SimdFloatCmp            0      0.00%     78.88% # Class of committed instruction. (Count)
system.cpu.commitStats0.committedInstType::SimdFloatCvt          339      0.00%     78.88% # Class of committed instruction. (Count)
system.cpu.commitStats0.committedInstType::SimdFloatDiv           34      0.00%     78.88% # Class of committed instruction. (Count)
system.cpu.commitStats0.committedInstType::SimdFloatMisc            0      0.00%     78.88% # Class of committed instruction. (Count)
system.cpu.commitStats0.committedInstType::SimdFloatMult           33      0.00%     78.88% # Class of committed instruction. (Count)
system.cpu.commitStats0.committedInstType::SimdFloatMultAcc            0      0.00%     78.88% # Class of committed instruction. (Count)
system.cpu.commitStats0.committedInstType::SimdFloatMatMultAcc            0      0.00%     78.88% # Class of committed instruction. (Count)
system.cpu.commitStats0.committedInstType::SimdFloatSqrt            0      0.00%     78.88% # Class of committed instruction. (Count)
system.cpu.commitStats0.committedInstType::SimdReduceAdd            0      0.00%     78.88% # Class of committed instruction. (Count)
system.cpu.commitStats0.committedInstType::SimdReduceAlu            0      0.00%     78.88% # Class of committed instruction. (Count)
system.cpu.commitStats0.committedInstType::SimdReduceCmp            0      0.00%     78.88% # Class of committed instruction. (Count)
system.cpu.commitStats0.committedInstType::SimdFloatReduceAdd            0      0.00%     78.88% # Class of committed instruction. (Count)
system.cpu.commitStats0.committedInstType::SimdFloatReduceCmp            0      0.00%     78.88% # Class of committed instruction. (Count)
system.cpu.commitStats0.committedInstType::SimdAes            0      0.00%     78.88% # Class of committed instruction. (Count)
system.cpu.commitStats0.committedInstType::SimdAesMix            0      0.00%     78.88% # Class of committed instruction. (Count)
system.cpu.commitStats0.committedInstType::SimdSha1Hash            0      0.00%     78.88% # Class of committed instruction. (Count)
system.cpu.commitStats0.committedInstType::SimdSha1Hash2            0      0.00%     78.88% # Class of committed instruction. (Count)
system.cpu.commitStats0.committedInstType::SimdSha256Hash            0      0.00%     78.88% # Class of committed instruction. (Count)
system.cpu.commitStats0.committedInstType::SimdSha256Hash2            0      0.00%     78.88% # Class of committed instruction. (Count)
system.cpu.commitStats0.committedInstType::SimdShaSigma2            0      0.00%     78.88% # Class of committed instruction. (Count)
system.cpu.commitStats0.committedInstType::SimdShaSigma3            0      0.00%     78.88% # Class of committed instruction. (Count)
system.cpu.commitStats0.committedInstType::SimdPredAlu            0      0.00%     78.88% # Class of committed instruction. (Count)
system.cpu.commitStats0.committedInstType::Matrix            0      0.00%     78.88% # Class of committed instruction. (Count)
system.cpu.commitStats0.committedInstType::MatrixMov            0      0.00%     78.88% # Class of committed instruction. (Count)
system.cpu.commitStats0.committedInstType::MatrixOP            0      0.00%     78.88% # Class of committed instruction. (Count)
system.cpu.commitStats0.committedInstType::MemRead     85890974      9.78%     88.66% # Class of committed instruction. (Count)
system.cpu.commitStats0.committedInstType::MemWrite     86753285      9.88%     98.54% # Class of committed instruction. (Count)
system.cpu.commitStats0.committedInstType::FloatMemRead      5029395      0.57%     99.12% # Class of committed instruction. (Count)
system.cpu.commitStats0.committedInstType::FloatMemWrite      7768696      0.88%    100.00% # Class of committed instruction. (Count)
system.cpu.commitStats0.committedInstType::IprAccess            0      0.00%    100.00% # Class of committed instruction. (Count)
system.cpu.commitStats0.committedInstType::InstPrefetch            0      0.00%    100.00% # Class of committed instruction. (Count)
system.cpu.commitStats0.committedInstType::SimdUnitStrideLoad            0      0.00%    100.00% # Class of committed instruction. (Count)
system.cpu.commitStats0.committedInstType::SimdUnitStrideStore            0      0.00%    100.00% # Class of committed instruction. (Count)
system.cpu.commitStats0.committedInstType::SimdUnitStrideMaskLoad            0      0.00%    100.00% # Class of committed instruction. (Count)
system.cpu.commitStats0.committedInstType::SimdUnitStrideMaskStore            0      0.00%    100.00% # Class of committed instruction. (Count)
system.cpu.commitStats0.committedInstType::SimdStridedLoad            0      0.00%    100.00% # Class of committed instruction. (Count)
system.cpu.commitStats0.committedInstType::SimdStridedStore            0      0.00%    100.00% # Class of committed instruction. (Count)
system.cpu.commitStats0.committedInstType::SimdIndexedLoad            0      0.00%    100.00% # Class of committed instruction. (Count)
system.cpu.commitStats0.committedInstType::SimdIndexedStore            0      0.00%    100.00% # Class of committed instruction. (Count)
system.cpu.commitStats0.committedInstType::SimdWholeRegisterLoad            0      0.00%    100.00% # Class of committed instruction. (Count)
system.cpu.commitStats0.committedInstType::SimdWholeRegisterStore            0      0.00%    100.00% # Class of committed instruction. (Count)
system.cpu.commitStats0.committedInstType::SimdUnitStrideFaultOnlyFirstLoad            0      0.00%    100.00% # Class of committed instruction. (Count)
system.cpu.commitStats0.committedInstType::SimdUnitStrideSegmentedLoad            0      0.00%    100.00% # Class of committed instruction. (Count)
system.cpu.commitStats0.committedInstType::SimdUnitStrideSegmentedStore            0      0.00%    100.00% # Class of committed instruction. (Count)
system.cpu.commitStats0.committedInstType::SimdExt            0      0.00%    100.00% # Class of committed instruction. (Count)
system.cpu.commitStats0.committedInstType::SimdFloatExt            0      0.00%    100.00% # Class of committed instruction. (Count)
system.cpu.commitStats0.committedInstType::SimdConfig            0      0.00%    100.00% # Class of committed instruction. (Count)
system.cpu.commitStats0.committedInstType::total    878153911                       # Class of committed instruction. (Count)
system.cpu.commitStats0.committedControl::IsControl    112121836                       # Class of control type instructions committed (Count)
system.cpu.commitStats0.committedControl::IsDirectControl    102832695                       # Class of control type instructions committed (Count)
system.cpu.commitStats0.committedControl::IsIndirectControl      9254564                       # Class of control type instructions committed (Count)
system.cpu.commitStats0.committedControl::IsCondControl     94324271                       # Class of control type instructions committed (Count)
system.cpu.commitStats0.committedControl::IsUncondControl     17762988                       # Class of control type instructions committed (Count)
system.cpu.commitStats0.committedControl::IsCall      5196567                       # Class of control type instructions committed (Count)
system.cpu.commitStats0.committedControl::IsReturn      5196562                       # Class of control type instructions committed (Count)
system.cpu.exec_context.thread_0.numMatAluAccesses            0                       # Number of matrix alu accesses (Count)
system.cpu.exec_context.thread_0.numCallsReturns     10393129                       # Number of times a function call or return occured (Count)
system.cpu.exec_context.thread_0.numMatInsts            0                       # Number of matrix instructions (Count)
system.cpu.exec_context.thread_0.numIdleCycles            0                       # Number of idle cycles (Cycle)
system.cpu.exec_context.thread_0.numBusyCycles   1030680048                       # Number of busy cycles (Cycle)
system.cpu.exec_context.thread_0.notIdleFraction            1                       # Percentage of non-idle cycles (Ratio)
system.cpu.exec_context.thread_0.idleFraction            0                       # Percentage of idle cycles (Ratio)
system.cpu.executeStats0.numInsts                   0                       # Number of executed instructions (Count)
system.cpu.executeStats0.numNop                     0                       # Number of nop insts executed (Count)
system.cpu.executeStats0.numBranches                0                       # Number of branches executed (Count)
system.cpu.executeStats0.numLoadInsts               0                       # Number of load instructions executed (Count)
system.cpu.executeStats0.numStoreInsts      185442350                       # Number of stores executed (Count)
system.cpu.executeStats0.instRate                   0                       # Inst execution rate ((Count/Cycle))
system.cpu.executeStats0.numFpAluAccesses     26176477                       # Number of float alu accesses (Count)
system.cpu.executeStats0.numFpRegReads       33009046                       # Number of times the floating registers were read (Count)
system.cpu.executeStats0.numFpRegWrites      16820395                       # Number of times the floating registers were written (Count)
system.cpu.executeStats0.numIntAluAccesses    808801152                       # Number of integer alu accesses (Count)
system.cpu.executeStats0.numIntRegReads    1116285248                       # Number of times the integer registers were read (Count)
system.cpu.executeStats0.numIntRegWrites    610012057                       # Number of times the integer registers were written (Count)
system.cpu.executeStats0.numMemRefs         185442350                       # Number of memory refs (Count)
system.cpu.executeStats0.numMiscRegReads    325349480                       # Number of times the Misc registers were read (Count)
system.cpu.executeStats0.numMiscRegWrites          702                       # Number of times the Misc registers were written (Count)
system.cpu.executeStats0.numVecAluAccesses            0                       # Number of vector alu accesses (Count)
system.cpu.executeStats0.numDiscardedOps            0                       # Number of ops (including micro ops) which were discarded before commit (Count)
system.cpu.fetchStats0.numInsts             384034355                       # Number of instructions fetched (thread level) (Count)
system.cpu.fetchStats0.numOps               878153911                       # Number of ops (including micro ops) fetched (thread level) (Count)
system.cpu.fetchStats0.fetchRate             0.372603                       # Number of inst fetches per cycle ((Count/Cycle))
system.cpu.fetchStats0.numBranches          112121836                       # Number of branches fetched (Count)
system.cpu.fetchStats0.branchRate            0.108784                       # Number of branch fetches per cycle (Ratio)
system.cpu.fetchStats0.numFetchSuspends             0                       # Number of times Execute suspended instruction fetching (Count)
system.cpu.interrupts.clk_domain.clock          16000                       # Clock period in ticks (Tick)
system.cpu.l1d.demandHits::cpu.data         179340443                       # number of demand (read+write) hits (Count)
system.cpu.l1d.demandHits::total            179340443                       # number of demand (read+write) hits (Count)
system.cpu.l1d.overallHits::cpu.data        179341257                       # number of overall hits (Count)
system.cpu.l1d.overallHits::total           179341257                       # number of overall hits (Count)
system.cpu.l1d.demandMisses::cpu.data         6062047                       # number of demand (read+write) misses (Count)
system.cpu.l1d.demandMisses::total            6062047                       # number of demand (read+write) misses (Count)
system.cpu.l1d.overallMisses::cpu.data        6159409                       # number of overall misses (Count)
system.cpu.l1d.overallMisses::total           6159409                       # number of overall misses (Count)
system.cpu.l1d.demandMissLatency::cpu.data 264756368000                       # number of demand (read+write) miss ticks (Tick)
system.cpu.l1d.demandMissLatency::total  264756368000                       # number of demand (read+write) miss ticks (Tick)
system.cpu.l1d.overallMissLatency::cpu.data 264756368000                       # number of overall miss ticks (Tick)
system.cpu.l1d.overallMissLatency::total 264756368000                       # number of overall miss ticks (Tick)
system.cpu.l1d.demandAccesses::cpu.data     185402490                       # number of demand (read+write) accesses (Count)
system.cpu.l1d.demandAccesses::total        185402490                       # number of demand (read+write) accesses (Count)
system.cpu.l1d.overallAccesses::cpu.data    185500666                       # number of overall (read+write) accesses (Count)
system.cpu.l1d.overallAccesses::total       185500666                       # number of overall (read+write) accesses (Count)
system.cpu.l1d.demandMissRate::cpu.data      0.032697                       # miss rate for demand accesses (Ratio)
system.cpu.l1d.demandMissRate::total         0.032697                       # miss rate for demand accesses (Ratio)
system.cpu.l1d.overallMissRate::cpu.data     0.033204                       # miss rate for overall accesses (Ratio)
system.cpu.l1d.overallMissRate::total        0.033204                       # miss rate for overall accesses (Ratio)
system.cpu.l1d.demandAvgMissLatency::cpu.data 43674.416909                       # average overall miss latency in ticks ((Tick/Count))
system.cpu.l1d.demandAvgMissLatency::total 43674.416909                       # average overall miss latency in ticks ((Tick/Count))
system.cpu.l1d.overallAvgMissLatency::cpu.data 42984.053827                       # average overall miss latency ((Tick/Count))
system.cpu.l1d.overallAvgMissLatency::total 42984.053827                       # average overall miss latency ((Tick/Count))
system.cpu.l1d.blockedCycles::no_mshrs              0                       # number of cycles access was blocked (Cycle)
system.cpu.l1d.blockedCycles::no_targets            0                       # number of cycles access was blocked (Cycle)
system.cpu.l1d.blockedCauses::no_mshrs              0                       # number of times access was blocked (Count)
system.cpu.l1d.blockedCauses::no_targets            0                       # number of times access was blocked (Count)
system.cpu.l1d.avgBlocked::no_mshrs               nan                       # average number of cycles each access was blocked ((Cycle/Count))
system.cpu.l1d.avgBlocked::no_targets             nan                       # average number of cycles each access was blocked ((Cycle/Count))
system.cpu.l1d.writebacks::writebacks         3206152                       # number of writebacks (Count)
system.cpu.l1d.writebacks::total              3206152                       # number of writebacks (Count)
system.cpu.l1d.demandMshrMisses::cpu.data      6062047                       # number of demand (read+write) MSHR misses (Count)
system.cpu.l1d.demandMshrMisses::total        6062047                       # number of demand (read+write) MSHR misses (Count)
system.cpu.l1d.overallMshrMisses::cpu.data      6159409                       # number of overall MSHR misses (Count)
system.cpu.l1d.overallMshrMisses::total       6159409                       # number of overall MSHR misses (Count)
system.cpu.l1d.demandMshrMissLatency::cpu.data 258694321000                       # number of demand (read+write) MSHR miss ticks (Tick)
system.cpu.l1d.demandMshrMissLatency::total 258694321000                       # number of demand (read+write) MSHR miss ticks (Tick)
system.cpu.l1d.overallMshrMissLatency::cpu.data 265147151000                       # number of overall MSHR miss ticks (Tick)
system.cpu.l1d.overallMshrMissLatency::total 265147151000                       # number of overall MSHR miss ticks (Tick)
system.cpu.l1d.demandMshrMissRate::cpu.data     0.032697                       # mshr miss ratio for demand accesses (Ratio)
system.cpu.l1d.demandMshrMissRate::total     0.032697                       # mshr miss ratio for demand accesses (Ratio)
system.cpu.l1d.overallMshrMissRate::cpu.data     0.033204                       # mshr miss ratio for overall accesses (Ratio)
system.cpu.l1d.overallMshrMissRate::total     0.033204                       # mshr miss ratio for overall accesses (Ratio)
system.cpu.l1d.demandAvgMshrMissLatency::cpu.data 42674.416909                       # average overall mshr miss latency ((Tick/Count))
system.cpu.l1d.demandAvgMshrMissLatency::total 42674.416909                       # average overall mshr miss latency ((Tick/Count))
system.cpu.l1d.overallAvgMshrMissLatency::cpu.data 43047.498713                       # average overall mshr miss latency ((Tick/Count))
system.cpu.l1d.overallAvgMshrMissLatency::total 43047.498713                       # average overall mshr miss latency ((Tick/Count))
system.cpu.l1d.replacements                   6159512                       # number of replacements (Count)
system.cpu.l1d.LockedRMWReadReq.hits::cpu.data         1237                       # number of LockedRMWReadReq hits (Count)
system.cpu.l1d.LockedRMWReadReq.hits::total         1237                       # number of LockedRMWReadReq hits (Count)
system.cpu.l1d.LockedRMWReadReq.misses::cpu.data          167                       # number of LockedRMWReadReq misses (Count)
system.cpu.l1d.LockedRMWReadReq.misses::total          167                       # number of LockedRMWReadReq misses (Count)
system.cpu.l1d.LockedRMWReadReq.missLatency::cpu.data     10606000                       # number of LockedRMWReadReq miss ticks (Tick)
system.cpu.l1d.LockedRMWReadReq.missLatency::total     10606000                       # number of LockedRMWReadReq miss ticks (Tick)
system.cpu.l1d.LockedRMWReadReq.accesses::cpu.data         1404                       # number of LockedRMWReadReq accesses(hits+misses) (Count)
system.cpu.l1d.LockedRMWReadReq.accesses::total         1404                       # number of LockedRMWReadReq accesses(hits+misses) (Count)
system.cpu.l1d.LockedRMWReadReq.missRate::cpu.data     0.118946                       # miss rate for LockedRMWReadReq accesses (Ratio)
system.cpu.l1d.LockedRMWReadReq.missRate::total     0.118946                       # miss rate for LockedRMWReadReq accesses (Ratio)
system.cpu.l1d.LockedRMWReadReq.avgMissLatency::cpu.data 63508.982036                       # average LockedRMWReadReq miss latency ((Tick/Count))
system.cpu.l1d.LockedRMWReadReq.avgMissLatency::total 63508.982036                       # average LockedRMWReadReq miss latency ((Tick/Count))
system.cpu.l1d.LockedRMWReadReq.mshrMisses::cpu.data          167                       # number of LockedRMWReadReq MSHR misses (Count)
system.cpu.l1d.LockedRMWReadReq.mshrMisses::total          167                       # number of LockedRMWReadReq MSHR misses (Count)
system.cpu.l1d.LockedRMWReadReq.mshrMissLatency::cpu.data     22282000                       # number of LockedRMWReadReq MSHR miss ticks (Tick)
system.cpu.l1d.LockedRMWReadReq.mshrMissLatency::total     22282000                       # number of LockedRMWReadReq MSHR miss ticks (Tick)
system.cpu.l1d.LockedRMWReadReq.mshrMissRate::cpu.data     0.118946                       # mshr miss rate for LockedRMWReadReq accesses (Ratio)
system.cpu.l1d.LockedRMWReadReq.mshrMissRate::total     0.118946                       # mshr miss rate for LockedRMWReadReq accesses (Ratio)
system.cpu.l1d.LockedRMWReadReq.avgMshrMissLatency::cpu.data 133425.149701                       # average LockedRMWReadReq mshr miss latency ((Tick/Count))
system.cpu.l1d.LockedRMWReadReq.avgMshrMissLatency::total 133425.149701                       # average LockedRMWReadReq mshr miss latency ((Tick/Count))
system.cpu.l1d.LockedRMWWriteReq.hits::cpu.data         1404                       # number of LockedRMWWriteReq hits (Count)
system.cpu.l1d.LockedRMWWriteReq.hits::total         1404                       # number of LockedRMWWriteReq hits (Count)
system.cpu.l1d.LockedRMWWriteReq.accesses::cpu.data         1404                       # number of LockedRMWWriteReq accesses(hits+misses) (Count)
system.cpu.l1d.LockedRMWWriteReq.accesses::total         1404                       # number of LockedRMWWriteReq accesses(hits+misses) (Count)
system.cpu.l1d.ReadReq.hits::cpu.data        85933675                       # number of ReadReq hits (Count)
system.cpu.l1d.ReadReq.hits::total           85933675                       # number of ReadReq hits (Count)
system.cpu.l1d.ReadReq.misses::cpu.data       4948696                       # number of ReadReq misses (Count)
system.cpu.l1d.ReadReq.misses::total          4948696                       # number of ReadReq misses (Count)
system.cpu.l1d.ReadReq.missLatency::cpu.data 205498470000                       # number of ReadReq miss ticks (Tick)
system.cpu.l1d.ReadReq.missLatency::total 205498470000                       # number of ReadReq miss ticks (Tick)
system.cpu.l1d.ReadReq.accesses::cpu.data     90882371                       # number of ReadReq accesses(hits+misses) (Count)
system.cpu.l1d.ReadReq.accesses::total       90882371                       # number of ReadReq accesses(hits+misses) (Count)
system.cpu.l1d.ReadReq.missRate::cpu.data     0.054452                       # miss rate for ReadReq accesses (Ratio)
system.cpu.l1d.ReadReq.missRate::total       0.054452                       # miss rate for ReadReq accesses (Ratio)
system.cpu.l1d.ReadReq.avgMissLatency::cpu.data 41525.781741                       # average ReadReq miss latency ((Tick/Count))
system.cpu.l1d.ReadReq.avgMissLatency::total 41525.781741                       # average ReadReq miss latency ((Tick/Count))
system.cpu.l1d.ReadReq.mshrMisses::cpu.data      4948696                       # number of ReadReq MSHR misses (Count)
system.cpu.l1d.ReadReq.mshrMisses::total      4948696                       # number of ReadReq MSHR misses (Count)
system.cpu.l1d.ReadReq.mshrMissLatency::cpu.data 200549774000                       # number of ReadReq MSHR miss ticks (Tick)
system.cpu.l1d.ReadReq.mshrMissLatency::total 200549774000                       # number of ReadReq MSHR miss ticks (Tick)
system.cpu.l1d.ReadReq.mshrMissRate::cpu.data     0.054452                       # mshr miss rate for ReadReq accesses (Ratio)
system.cpu.l1d.ReadReq.mshrMissRate::total     0.054452                       # mshr miss rate for ReadReq accesses (Ratio)
system.cpu.l1d.ReadReq.avgMshrMissLatency::cpu.data 40525.781741                       # average ReadReq mshr miss latency ((Tick/Count))
system.cpu.l1d.ReadReq.avgMshrMissLatency::total 40525.781741                       # average ReadReq mshr miss latency ((Tick/Count))
system.cpu.l1d.SoftPFReq.hits::cpu.data           814                       # number of SoftPFReq hits (Count)
system.cpu.l1d.SoftPFReq.hits::total              814                       # number of SoftPFReq hits (Count)
system.cpu.l1d.SoftPFReq.misses::cpu.data        97362                       # number of SoftPFReq misses (Count)
system.cpu.l1d.SoftPFReq.misses::total          97362                       # number of SoftPFReq misses (Count)
system.cpu.l1d.SoftPFReq.accesses::cpu.data        98176                       # number of SoftPFReq accesses(hits+misses) (Count)
system.cpu.l1d.SoftPFReq.accesses::total        98176                       # number of SoftPFReq accesses(hits+misses) (Count)
system.cpu.l1d.SoftPFReq.missRate::cpu.data     0.991709                       # miss rate for SoftPFReq accesses (Ratio)
system.cpu.l1d.SoftPFReq.missRate::total     0.991709                       # miss rate for SoftPFReq accesses (Ratio)
system.cpu.l1d.SoftPFReq.mshrMisses::cpu.data        97362                       # number of SoftPFReq MSHR misses (Count)
system.cpu.l1d.SoftPFReq.mshrMisses::total        97362                       # number of SoftPFReq MSHR misses (Count)
system.cpu.l1d.SoftPFReq.mshrMissLatency::cpu.data   6452830000                       # number of SoftPFReq MSHR miss ticks (Tick)
system.cpu.l1d.SoftPFReq.mshrMissLatency::total   6452830000                       # number of SoftPFReq MSHR miss ticks (Tick)
system.cpu.l1d.SoftPFReq.mshrMissRate::cpu.data     0.991709                       # mshr miss rate for SoftPFReq accesses (Ratio)
system.cpu.l1d.SoftPFReq.mshrMissRate::total     0.991709                       # mshr miss rate for SoftPFReq accesses (Ratio)
system.cpu.l1d.SoftPFReq.avgMshrMissLatency::cpu.data 66276.678786                       # average SoftPFReq mshr miss latency ((Tick/Count))
system.cpu.l1d.SoftPFReq.avgMshrMissLatency::total 66276.678786                       # average SoftPFReq mshr miss latency ((Tick/Count))
system.cpu.l1d.WriteReq.hits::cpu.data       93406768                       # number of WriteReq hits (Count)
system.cpu.l1d.WriteReq.hits::total          93406768                       # number of WriteReq hits (Count)
system.cpu.l1d.WriteReq.misses::cpu.data      1113351                       # number of WriteReq misses (Count)
system.cpu.l1d.WriteReq.misses::total         1113351                       # number of WriteReq misses (Count)
system.cpu.l1d.WriteReq.missLatency::cpu.data  59257898000                       # number of WriteReq miss ticks (Tick)
system.cpu.l1d.WriteReq.missLatency::total  59257898000                       # number of WriteReq miss ticks (Tick)
system.cpu.l1d.WriteReq.accesses::cpu.data     94520119                       # number of WriteReq accesses(hits+misses) (Count)
system.cpu.l1d.WriteReq.accesses::total      94520119                       # number of WriteReq accesses(hits+misses) (Count)
system.cpu.l1d.WriteReq.missRate::cpu.data     0.011779                       # miss rate for WriteReq accesses (Ratio)
system.cpu.l1d.WriteReq.missRate::total      0.011779                       # miss rate for WriteReq accesses (Ratio)
system.cpu.l1d.WriteReq.avgMissLatency::cpu.data 53224.812301                       # average WriteReq miss latency ((Tick/Count))
system.cpu.l1d.WriteReq.avgMissLatency::total 53224.812301                       # average WriteReq miss latency ((Tick/Count))
system.cpu.l1d.WriteReq.mshrMisses::cpu.data      1113351                       # number of WriteReq MSHR misses (Count)
system.cpu.l1d.WriteReq.mshrMisses::total      1113351                       # number of WriteReq MSHR misses (Count)
system.cpu.l1d.WriteReq.mshrMissLatency::cpu.data  58144547000                       # number of WriteReq MSHR miss ticks (Tick)
system.cpu.l1d.WriteReq.mshrMissLatency::total  58144547000                       # number of WriteReq MSHR miss ticks (Tick)
system.cpu.l1d.WriteReq.mshrMissRate::cpu.data     0.011779                       # mshr miss rate for WriteReq accesses (Ratio)
system.cpu.l1d.WriteReq.mshrMissRate::total     0.011779                       # mshr miss rate for WriteReq accesses (Ratio)
system.cpu.l1d.WriteReq.avgMshrMissLatency::cpu.data 52224.812301                       # average WriteReq mshr miss latency ((Tick/Count))
system.cpu.l1d.WriteReq.avgMshrMissLatency::total 52224.812301                       # average WriteReq mshr miss latency ((Tick/Count))
system.cpu.l1d.power_state.pwrStateResidencyTicks::UNDEFINED 1030680048000                       # Cumulative time (in ticks) in various power states (Tick)
system.cpu.l1d.tags.tagsInUse               63.999719                       # Average ticks per tags in use ((Tick/Count))
system.cpu.l1d.tags.totalRefs               185503222                       # Total number of references to valid blocks. (Count)
system.cpu.l1d.tags.sampledRefs               6159512                       # Sample count of references to valid blocks. (Count)
system.cpu.l1d.tags.avgRefs                 30.116545                       # Average number of references to valid blocks. ((Count/Count))
system.cpu.l1d.tags.warmupTick                 158000                       # The tick when the warmup percentage was hit. (Tick)
system.cpu.l1d.tags.occupancies::cpu.data    63.999719                       # Average occupied blocks per tick, per requestor ((Count/Tick))
system.cpu.l1d.tags.avgOccs::cpu.data        0.999996                       # Average percentage of cache occupancy ((Ratio/Tick))
system.cpu.l1d.tags.avgOccs::total           0.999996                       # Average percentage of cache occupancy ((Ratio/Tick))
system.cpu.l1d.tags.occupanciesTaskId::1024           64                       # Occupied blocks per task id (Count)
system.cpu.l1d.tags.ageTaskId_1024::0              64                       # Occupied blocks per task id, per block age (Count)
system.cpu.l1d.tags.ratioOccsTaskId::1024            1                       # Ratio of occupied blocks and all blocks, per task id (Ratio)
system.cpu.l1d.tags.tagAccesses             377166524                       # Number of tag accesses (Count)
system.cpu.l1d.tags.dataAccesses            377166524                       # Number of data accesses (Count)
system.cpu.l1d.tags.power_state.pwrStateResidencyTicks::UNDEFINED 1030680048000                       # Cumulative time (in ticks) in various power states (Tick)
system.cpu.l1i.demandHits::cpu.inst         509718595                       # number of demand (read+write) hits (Count)
system.cpu.l1i.demandHits::total            509718595                       # number of demand (read+write) hits (Count)
system.cpu.l1i.overallHits::cpu.inst        509718595                       # number of overall hits (Count)
system.cpu.l1i.overallHits::total           509718595                       # number of overall hits (Count)
system.cpu.l1i.demandMisses::cpu.inst         5533442                       # number of demand (read+write) misses (Count)
system.cpu.l1i.demandMisses::total            5533442                       # number of demand (read+write) misses (Count)
system.cpu.l1i.overallMisses::cpu.inst        5533442                       # number of overall misses (Count)
system.cpu.l1i.overallMisses::total           5533442                       # number of overall misses (Count)
system.cpu.l1i.demandMissLatency::cpu.inst  71531311000                       # number of demand (read+write) miss ticks (Tick)
system.cpu.l1i.demandMissLatency::total   71531311000                       # number of demand (read+write) miss ticks (Tick)
system.cpu.l1i.overallMissLatency::cpu.inst  71531311000                       # number of overall miss ticks (Tick)
system.cpu.l1i.overallMissLatency::total  71531311000                       # number of overall miss ticks (Tick)
system.cpu.l1i.demandAccesses::cpu.inst     515252037                       # number of demand (read+write) accesses (Count)
system.cpu.l1i.demandAccesses::total        515252037                       # number of demand (read+write) accesses (Count)
system.cpu.l1i.overallAccesses::cpu.inst    515252037                       # number of overall (read+write) accesses (Count)
system.cpu.l1i.overallAccesses::total       515252037                       # number of overall (read+write) accesses (Count)
system.cpu.l1i.demandMissRate::cpu.inst      0.010739                       # miss rate for demand accesses (Ratio)
system.cpu.l1i.demandMissRate::total         0.010739                       # miss rate for demand accesses (Ratio)
system.cpu.l1i.overallMissRate::cpu.inst     0.010739                       # miss rate for overall accesses (Ratio)
system.cpu.l1i.overallMissRate::total        0.010739                       # miss rate for overall accesses (Ratio)
system.cpu.l1i.demandAvgMissLatency::cpu.inst 12927.091492                       # average overall miss latency in ticks ((Tick/Count))
system.cpu.l1i.demandAvgMissLatency::total 12927.091492                       # average overall miss latency in ticks ((Tick/Count))
system.cpu.l1i.overallAvgMissLatency::cpu.inst 12927.091492                       # average overall miss latency ((Tick/Count))
system.cpu.l1i.overallAvgMissLatency::total 12927.091492                       # average overall miss latency ((Tick/Count))
system.cpu.l1i.blockedCycles::no_mshrs              0                       # number of cycles access was blocked (Cycle)
system.cpu.l1i.blockedCycles::no_targets            0                       # number of cycles access was blocked (Cycle)
system.cpu.l1i.blockedCauses::no_mshrs              0                       # number of times access was blocked (Count)
system.cpu.l1i.blockedCauses::no_targets            0                       # number of times access was blocked (Count)
system.cpu.l1i.avgBlocked::no_mshrs               nan                       # average number of cycles each access was blocked ((Cycle/Count))
system.cpu.l1i.avgBlocked::no_targets             nan                       # average number of cycles each access was blocked ((Cycle/Count))
system.cpu.l1i.demandMshrMisses::cpu.inst      5533442                       # number of demand (read+write) MSHR misses (Count)
system.cpu.l1i.demandMshrMisses::total        5533442                       # number of demand (read+write) MSHR misses (Count)
system.cpu.l1i.overallMshrMisses::cpu.inst      5533442                       # number of overall MSHR misses (Count)
system.cpu.l1i.overallMshrMisses::total       5533442                       # number of overall MSHR misses (Count)
system.cpu.l1i.demandMshrMissLatency::cpu.inst  65997869000                       # number of demand (read+write) MSHR miss ticks (Tick)
system.cpu.l1i.demandMshrMissLatency::total  65997869000                       # number of demand (read+write) MSHR miss ticks (Tick)
system.cpu.l1i.overallMshrMissLatency::cpu.inst  65997869000                       # number of overall MSHR miss ticks (Tick)
system.cpu.l1i.overallMshrMissLatency::total  65997869000                       # number of overall MSHR miss ticks (Tick)
system.cpu.l1i.demandMshrMissRate::cpu.inst     0.010739                       # mshr miss ratio for demand accesses (Ratio)
system.cpu.l1i.demandMshrMissRate::total     0.010739                       # mshr miss ratio for demand accesses (Ratio)
system.cpu.l1i.overallMshrMissRate::cpu.inst     0.010739                       # mshr miss ratio for overall accesses (Ratio)
system.cpu.l1i.overallMshrMissRate::total     0.010739                       # mshr miss ratio for overall accesses (Ratio)
system.cpu.l1i.demandAvgMshrMissLatency::cpu.inst 11927.091492                       # average overall mshr miss latency ((Tick/Count))
system.cpu.l1i.demandAvgMshrMissLatency::total 11927.091492                       # average overall mshr miss latency ((Tick/Count))
system.cpu.l1i.overallAvgMshrMissLatency::cpu.inst 11927.091492                       # average overall mshr miss latency ((Tick/Count))
system.cpu.l1i.overallAvgMshrMissLatency::total 11927.091492                       # average overall mshr miss latency ((Tick/Count))
system.cpu.l1i.replacements                   5533378                       # number of replacements (Count)
system.cpu.l1i.ReadReq.hits::cpu.inst       509718595                       # number of ReadReq hits (Count)
system.cpu.l1i.ReadReq.hits::total          509718595                       # number of ReadReq hits (Count)
system.cpu.l1i.ReadReq.misses::cpu.inst       5533442                       # number of ReadReq misses (Count)
system.cpu.l1i.ReadReq.misses::total          5533442                       # number of ReadReq misses (Count)
system.cpu.l1i.ReadReq.missLatency::cpu.inst  71531311000                       # number of ReadReq miss ticks (Tick)
system.cpu.l1i.ReadReq.missLatency::total  71531311000                       # number of ReadReq miss ticks (Tick)
system.cpu.l1i.ReadReq.accesses::cpu.inst    515252037                       # number of ReadReq accesses(hits+misses) (Count)
system.cpu.l1i.ReadReq.accesses::total      515252037                       # number of ReadReq accesses(hits+misses) (Count)
system.cpu.l1i.ReadReq.missRate::cpu.inst     0.010739                       # miss rate for ReadReq accesses (Ratio)
system.cpu.l1i.ReadReq.missRate::total       0.010739                       # miss rate for ReadReq accesses (Ratio)
system.cpu.l1i.ReadReq.avgMissLatency::cpu.inst 12927.091492                       # average ReadReq miss latency ((Tick/Count))
system.cpu.l1i.ReadReq.avgMissLatency::total 12927.091492                       # average ReadReq miss latency ((Tick/Count))
system.cpu.l1i.ReadReq.mshrMisses::cpu.inst      5533442                       # number of ReadReq MSHR misses (Count)
system.cpu.l1i.ReadReq.mshrMisses::total      5533442                       # number of ReadReq MSHR misses (Count)
system.cpu.l1i.ReadReq.mshrMissLatency::cpu.inst  65997869000                       # number of ReadReq MSHR miss ticks (Tick)
system.cpu.l1i.ReadReq.mshrMissLatency::total  65997869000                       # number of ReadReq MSHR miss ticks (Tick)
system.cpu.l1i.ReadReq.mshrMissRate::cpu.inst     0.010739                       # mshr miss rate for ReadReq accesses (Ratio)
system.cpu.l1i.ReadReq.mshrMissRate::total     0.010739                       # mshr miss rate for ReadReq accesses (Ratio)
system.cpu.l1i.ReadReq.avgMshrMissLatency::cpu.inst 11927.091492                       # average ReadReq mshr miss latency ((Tick/Count))
system.cpu.l1i.ReadReq.avgMshrMissLatency::total 11927.091492                       # average ReadReq mshr miss latency ((Tick/Count))
system.cpu.l1i.power_state.pwrStateResidencyTicks::UNDEFINED 1030680048000                       # Cumulative time (in ticks) in various power states (Tick)
system.cpu.l1i.tags.tagsInUse               63.999263                       # Average ticks per tags in use ((Tick/Count))
system.cpu.l1i.tags.totalRefs               512965541                       # Total number of references to valid blocks. (Count)
system.cpu.l1i.tags.sampledRefs               5533378                       # Sample count of references to valid blocks. (Count)
system.cpu.l1i.tags.avgRefs                 92.703868                       # Average number of references to valid blocks. ((Count/Count))
system.cpu.l1i.tags.warmupTick                  79000                       # The tick when the warmup percentage was hit. (Tick)
system.cpu.l1i.tags.occupancies::cpu.inst    63.999263                       # Average occupied blocks per tick, per requestor ((Count/Tick))
system.cpu.l1i.tags.avgOccs::cpu.inst        0.999988                       # Average percentage of cache occupancy ((Ratio/Tick))
system.cpu.l1i.tags.avgOccs::total           0.999988                       # Average percentage of cache occupancy ((Ratio/Tick))
system.cpu.l1i.tags.occupanciesTaskId::1024           64                       # Occupied blocks per task id (Count)
system.cpu.l1i.tags.ageTaskId_1024::0              21                       # Occupied blocks per task id, per block age (Count)
system.cpu.l1i.tags.ageTaskId_1024::2              16                       # Occupied blocks per task id, per block age (Count)
system.cpu.l1i.tags.ageTaskId_1024::3              24                       # Occupied blocks per task id, per block age (Count)
system.cpu.l1i.tags.ageTaskId_1024::4               3                       # Occupied blocks per task id, per block age (Count)
system.cpu.l1i.tags.ratioOccsTaskId::1024            1                       # Ratio of occupied blocks and all blocks, per task id (Ratio)
system.cpu.l1i.tags.tagAccesses            1036037516                       # Number of tag accesses (Count)
system.cpu.l1i.tags.dataAccesses           1036037516                       # Number of data accesses (Count)
system.cpu.l1i.tags.power_state.pwrStateResidencyTicks::UNDEFINED 1030680048000                       # Cumulative time (in ticks) in various power states (Tick)
system.cpu.mmu.dtb.rdAccesses                90982223                       # TLB accesses on read requests (Count)
system.cpu.mmu.dtb.wrAccesses                94522057                       # TLB accesses on write requests (Count)
system.cpu.mmu.dtb.rdMisses                    412944                       # TLB misses on read requests (Count)
system.cpu.mmu.dtb.wrMisses                     11591                       # TLB misses on write requests (Count)
system.cpu.mmu.dtb.walker.power_state.pwrStateResidencyTicks::UNDEFINED 1030680048000                       # Cumulative time (in ticks) in various power states (Tick)
system.cpu.mmu.itb.rdAccesses                       0                       # TLB accesses on read requests (Count)
system.cpu.mmu.itb.wrAccesses               515252153                       # TLB accesses on write requests (Count)
system.cpu.mmu.itb.rdMisses                         0                       # TLB misses on read requests (Count)
system.cpu.mmu.itb.wrMisses                       550                       # TLB misses on write requests (Count)
system.cpu.mmu.itb.walker.power_state.pwrStateResidencyTicks::UNDEFINED 1030680048000                       # Cumulative time (in ticks) in various power states (Tick)
system.cpu.power_state.pwrStateResidencyTicks::ON 1030680048000                       # Cumulative time (in ticks) in various power states (Tick)
system.cpu.thread_0.numInsts                        0                       # Number of Instructions committed (Count)
system.cpu.thread_0.numOps                          0                       # Number of Ops committed (Count)
system.cpu.thread_0.numMemRefs                      0                       # Number of Memory References (Count)
system.cpu.workload.numSyscalls                   140                       # Number of system calls (Count)
system.l2_bus.transDist::ReadResp            10579500                       # Transaction distribution (Count)
system.l2_bus.transDist::WritebackDirty       4929760                       # Transaction distribution (Count)
system.l2_bus.transDist::CleanEvict           9963221                       # Transaction distribution (Count)
system.l2_bus.transDist::ReadExReq            1113518                       # Transaction distribution (Count)
system.l2_bus.transDist::ReadExResp           1113518                       # Transaction distribution (Count)
system.l2_bus.transDist::ReadSharedReq       10579500                       # Transaction distribution (Count)
system.l2_bus.pktCount_system.cpu.l1d.mem_side_port::system.l2_cache.cpu_side_port     18478664                       # Packet count per connected requestor and responder (Count)
system.l2_bus.pktCount_system.cpu.l1i.mem_side_port::system.l2_cache.cpu_side_port     16600262                       # Packet count per connected requestor and responder (Count)
system.l2_bus.pktCount::total                35078926                       # Packet count per connected requestor and responder (Count)
system.l2_bus.pktSize_system.cpu.l1d.mem_side_port::system.l2_cache.cpu_side_port    599406592                       # Cumulative packet size per connected requestor and responder (Byte)
system.l2_bus.pktSize_system.cpu.l1i.mem_side_port::system.l2_cache.cpu_side_port    354140288                       # Cumulative packet size per connected requestor and responder (Byte)
system.l2_bus.pktSize::total                953546880                       # Cumulative packet size per connected requestor and responder (Byte)
system.l2_bus.snoops                          3200091                       # Total snoops (Count)
system.l2_bus.snoopTraffic                  110310912                       # Total snoop traffic (Byte)
system.l2_bus.snoopFanout::samples           14893109                       # Request fanout histogram (Count)
system.l2_bus.snoopFanout::mean              0.003647                       # Request fanout histogram (Count)
system.l2_bus.snoopFanout::stdev             0.060280                       # Request fanout histogram (Count)
system.l2_bus.snoopFanout::underflows               0      0.00%      0.00% # Request fanout histogram (Count)
system.l2_bus.snoopFanout::0                 14838794     99.64%     99.64% # Request fanout histogram (Count)
system.l2_bus.snoopFanout::1                    54315      0.36%    100.00% # Request fanout histogram (Count)
system.l2_bus.snoopFanout::2                        0      0.00%    100.00% # Request fanout histogram (Count)
system.l2_bus.snoopFanout::overflows                0      0.00%    100.00% # Request fanout histogram (Count)
system.l2_bus.snoopFanout::min_value                0                       # Request fanout histogram (Count)
system.l2_bus.snoopFanout::max_value                1                       # Request fanout histogram (Count)
system.l2_bus.snoopFanout::total             14893109                       # Request fanout histogram (Count)
system.l2_bus.power_state.pwrStateResidencyTicks::UNDEFINED 1030680048000                       # Cumulative time (in ticks) in various power states (Tick)
system.l2_bus.reqLayer0.occupancy         29798212000                       # Layer occupancy (ticks) (Tick)
system.l2_bus.reqLayer0.utilization               0.0                       # Layer utilization (Ratio)
system.l2_bus.respLayer0.occupancy        18478728000                       # Layer occupancy (ticks) (Tick)
system.l2_bus.respLayer0.utilization              0.0                       # Layer utilization (Ratio)
system.l2_bus.respLayer1.occupancy        16600326000                       # Layer occupancy (ticks) (Tick)
system.l2_bus.respLayer1.utilization              0.0                       # Layer utilization (Ratio)
system.l2_bus.snoop_filter.totRequests       23385908                       # Total number of requests made to the snoop filter. (Count)
system.l2_bus.snoop_filter.hitSingleRequests     11692890                       # Number of requests hitting in the snoop filter with a single holder of the requested data. (Count)
system.l2_bus.snoop_filter.hitMultiRequests            0                       # Number of requests hitting in the snoop filter with multiple (>1) holders of the requested data. (Count)
system.l2_bus.snoop_filter.totSnoops            54315                       # Total number of snoops made to the snoop filter. (Count)
system.l2_bus.snoop_filter.hitSingleSnoops        54315                       # Number of snoops hitting in the snoop filter with a single holder of the requested data. (Count)
system.l2_bus.snoop_filter.hitMultiSnoops            0                       # Number of snoops hitting in the snoop filter with multiple (>1) holders of the requested data. (Count)
system.l2_cache.demandHits::cpu.inst          5456311                       # number of demand (read+write) hits (Count)
system.l2_cache.demandHits::cpu.data          3047914                       # number of demand (read+write) hits (Count)
system.l2_cache.demandHits::total             8504225                       # number of demand (read+write) hits (Count)
system.l2_cache.overallHits::cpu.inst         5456311                       # number of overall hits (Count)
system.l2_cache.overallHits::cpu.data         3047914                       # number of overall hits (Count)
system.l2_cache.overallHits::total            8504225                       # number of overall hits (Count)
system.l2_cache.demandMisses::cpu.inst          77131                       # number of demand (read+write) misses (Count)
system.l2_cache.demandMisses::cpu.data        3111662                       # number of demand (read+write) misses (Count)
system.l2_cache.demandMisses::total           3188793                       # number of demand (read+write) misses (Count)
system.l2_cache.overallMisses::cpu.inst         77131                       # number of overall misses (Count)
system.l2_cache.overallMisses::cpu.data       3111662                       # number of overall misses (Count)
system.l2_cache.overallMisses::total          3188793                       # number of overall misses (Count)
system.l2_cache.demandMissLatency::cpu.inst   5798408000                       # number of demand (read+write) miss ticks (Tick)
system.l2_cache.demandMissLatency::cpu.data 225285177000                       # number of demand (read+write) miss ticks (Tick)
system.l2_cache.demandMissLatency::total 231083585000                       # number of demand (read+write) miss ticks (Tick)
system.l2_cache.overallMissLatency::cpu.inst   5798408000                       # number of overall miss ticks (Tick)
system.l2_cache.overallMissLatency::cpu.data 225285177000                       # number of overall miss ticks (Tick)
system.l2_cache.overallMissLatency::total 231083585000                       # number of overall miss ticks (Tick)
system.l2_cache.demandAccesses::cpu.inst      5533442                       # number of demand (read+write) accesses (Count)
system.l2_cache.demandAccesses::cpu.data      6159576                       # number of demand (read+write) accesses (Count)
system.l2_cache.demandAccesses::total        11693018                       # number of demand (read+write) accesses (Count)
system.l2_cache.overallAccesses::cpu.inst      5533442                       # number of overall (read+write) accesses (Count)
system.l2_cache.overallAccesses::cpu.data      6159576                       # number of overall (read+write) accesses (Count)
system.l2_cache.overallAccesses::total       11693018                       # number of overall (read+write) accesses (Count)
system.l2_cache.demandMissRate::cpu.inst     0.013939                       # miss rate for demand accesses (Ratio)
system.l2_cache.demandMissRate::cpu.data     0.505175                       # miss rate for demand accesses (Ratio)
system.l2_cache.demandMissRate::total        0.272709                       # miss rate for demand accesses (Ratio)
system.l2_cache.overallMissRate::cpu.inst     0.013939                       # miss rate for overall accesses (Ratio)
system.l2_cache.overallMissRate::cpu.data     0.505175                       # miss rate for overall accesses (Ratio)
system.l2_cache.overallMissRate::total       0.272709                       # miss rate for overall accesses (Ratio)
system.l2_cache.demandAvgMissLatency::cpu.inst 75176.102994                       # average overall miss latency in ticks ((Tick/Count))
system.l2_cache.demandAvgMissLatency::cpu.data 72400.272587                       # average overall miss latency in ticks ((Tick/Count))
system.l2_cache.demandAvgMissLatency::total 72467.414787                       # average overall miss latency in ticks ((Tick/Count))
system.l2_cache.overallAvgMissLatency::cpu.inst 75176.102994                       # average overall miss latency ((Tick/Count))
system.l2_cache.overallAvgMissLatency::cpu.data 72400.272587                       # average overall miss latency ((Tick/Count))
system.l2_cache.overallAvgMissLatency::total 72467.414787                       # average overall miss latency ((Tick/Count))
system.l2_cache.blockedCycles::no_mshrs             0                       # number of cycles access was blocked (Cycle)
system.l2_cache.blockedCycles::no_targets            0                       # number of cycles access was blocked (Cycle)
system.l2_cache.blockedCauses::no_mshrs             0                       # number of times access was blocked (Count)
system.l2_cache.blockedCauses::no_targets            0                       # number of times access was blocked (Count)
system.l2_cache.avgBlocked::no_mshrs              nan                       # average number of cycles each access was blocked ((Cycle/Count))
system.l2_cache.avgBlocked::no_targets            nan                       # average number of cycles each access was blocked ((Cycle/Count))
system.l2_cache.writebacks::writebacks        1723608                       # number of writebacks (Count)
system.l2_cache.writebacks::total             1723608                       # number of writebacks (Count)
system.l2_cache.demandMshrMisses::cpu.inst        77131                       # number of demand (read+write) MSHR misses (Count)
system.l2_cache.demandMshrMisses::cpu.data      3111662                       # number of demand (read+write) MSHR misses (Count)
system.l2_cache.demandMshrMisses::total       3188793                       # number of demand (read+write) MSHR misses (Count)
system.l2_cache.overallMshrMisses::cpu.inst        77131                       # number of overall MSHR misses (Count)
system.l2_cache.overallMshrMisses::cpu.data      3111662                       # number of overall MSHR misses (Count)
system.l2_cache.overallMshrMisses::total      3188793                       # number of overall MSHR misses (Count)
system.l2_cache.demandMshrMissLatency::cpu.inst   5721277000                       # number of demand (read+write) MSHR miss ticks (Tick)
system.l2_cache.demandMshrMissLatency::cpu.data 222173515000                       # number of demand (read+write) MSHR miss ticks (Tick)
system.l2_cache.demandMshrMissLatency::total 227894792000                       # number of demand (read+write) MSHR miss ticks (Tick)
system.l2_cache.overallMshrMissLatency::cpu.inst   5721277000                       # number of overall MSHR miss ticks (Tick)
system.l2_cache.overallMshrMissLatency::cpu.data 222173515000                       # number of overall MSHR miss ticks (Tick)
system.l2_cache.overallMshrMissLatency::total 227894792000                       # number of overall MSHR miss ticks (Tick)
system.l2_cache.demandMshrMissRate::cpu.inst     0.013939                       # mshr miss ratio for demand accesses (Ratio)
system.l2_cache.demandMshrMissRate::cpu.data     0.505175                       # mshr miss ratio for demand accesses (Ratio)
system.l2_cache.demandMshrMissRate::total     0.272709                       # mshr miss ratio for demand accesses (Ratio)
system.l2_cache.overallMshrMissRate::cpu.inst     0.013939                       # mshr miss ratio for overall accesses (Ratio)
system.l2_cache.overallMshrMissRate::cpu.data     0.505175                       # mshr miss ratio for overall accesses (Ratio)
system.l2_cache.overallMshrMissRate::total     0.272709                       # mshr miss ratio for overall accesses (Ratio)
system.l2_cache.demandAvgMshrMissLatency::cpu.inst 74176.102994                       # average overall mshr miss latency ((Tick/Count))
system.l2_cache.demandAvgMshrMissLatency::cpu.data 71400.272587                       # average overall mshr miss latency ((Tick/Count))
system.l2_cache.demandAvgMshrMissLatency::total 71467.414787                       # average overall mshr miss latency ((Tick/Count))
system.l2_cache.overallAvgMshrMissLatency::cpu.inst 74176.102994                       # average overall mshr miss latency ((Tick/Count))
system.l2_cache.overallAvgMshrMissLatency::cpu.data 71400.272587                       # average overall mshr miss latency ((Tick/Count))
system.l2_cache.overallAvgMshrMissLatency::total 71467.414787                       # average overall mshr miss latency ((Tick/Count))
system.l2_cache.replacements                  3200091                       # number of replacements (Count)
system.l2_cache.CleanEvict.mshrMisses::writebacks        42462                       # number of CleanEvict MSHR misses (Count)
system.l2_cache.CleanEvict.mshrMisses::total        42462                       # number of CleanEvict MSHR misses (Count)
system.l2_cache.CleanEvict.mshrMissRate::writebacks          inf                       # mshr miss rate for CleanEvict accesses (Ratio)
system.l2_cache.CleanEvict.mshrMissRate::total          inf                       # mshr miss rate for CleanEvict accesses (Ratio)
system.l2_cache.ReadExReq.hits::cpu.data       359269                       # number of ReadExReq hits (Count)
system.l2_cache.ReadExReq.hits::total          359269                       # number of ReadExReq hits (Count)
system.l2_cache.ReadExReq.misses::cpu.data       754249                       # number of ReadExReq misses (Count)
system.l2_cache.ReadExReq.misses::total        754249                       # number of ReadExReq misses (Count)
system.l2_cache.ReadExReq.missLatency::cpu.data  52643964000                       # number of ReadExReq miss ticks (Tick)
system.l2_cache.ReadExReq.missLatency::total  52643964000                       # number of ReadExReq miss ticks (Tick)
system.l2_cache.ReadExReq.accesses::cpu.data      1113518                       # number of ReadExReq accesses(hits+misses) (Count)
system.l2_cache.ReadExReq.accesses::total      1113518                       # number of ReadExReq accesses(hits+misses) (Count)
system.l2_cache.ReadExReq.missRate::cpu.data     0.677357                       # miss rate for ReadExReq accesses (Ratio)
system.l2_cache.ReadExReq.missRate::total     0.677357                       # miss rate for ReadExReq accesses (Ratio)
system.l2_cache.ReadExReq.avgMissLatency::cpu.data 69796.531384                       # average ReadExReq miss latency ((Tick/Count))
system.l2_cache.ReadExReq.avgMissLatency::total 69796.531384                       # average ReadExReq miss latency ((Tick/Count))
system.l2_cache.ReadExReq.mshrMisses::cpu.data       754249                       # number of ReadExReq MSHR misses (Count)
system.l2_cache.ReadExReq.mshrMisses::total       754249                       # number of ReadExReq MSHR misses (Count)
system.l2_cache.ReadExReq.mshrMissLatency::cpu.data  51889715000                       # number of ReadExReq MSHR miss ticks (Tick)
system.l2_cache.ReadExReq.mshrMissLatency::total  51889715000                       # number of ReadExReq MSHR miss ticks (Tick)
system.l2_cache.ReadExReq.mshrMissRate::cpu.data     0.677357                       # mshr miss rate for ReadExReq accesses (Ratio)
system.l2_cache.ReadExReq.mshrMissRate::total     0.677357                       # mshr miss rate for ReadExReq accesses (Ratio)
system.l2_cache.ReadExReq.avgMshrMissLatency::cpu.data 68796.531384                       # average ReadExReq mshr miss latency ((Tick/Count))
system.l2_cache.ReadExReq.avgMshrMissLatency::total 68796.531384                       # average ReadExReq mshr miss latency ((Tick/Count))
system.l2_cache.ReadSharedReq.hits::cpu.inst      5456311                       # number of ReadSharedReq hits (Count)
system.l2_cache.ReadSharedReq.hits::cpu.data      2688645                       # number of ReadSharedReq hits (Count)
system.l2_cache.ReadSharedReq.hits::total      8144956                       # number of ReadSharedReq hits (Count)
system.l2_cache.ReadSharedReq.misses::cpu.inst        77131                       # number of ReadSharedReq misses (Count)
system.l2_cache.ReadSharedReq.misses::cpu.data      2357413                       # number of ReadSharedReq misses (Count)
system.l2_cache.ReadSharedReq.misses::total      2434544                       # number of ReadSharedReq misses (Count)
system.l2_cache.ReadSharedReq.missLatency::cpu.inst   5798408000                       # number of ReadSharedReq miss ticks (Tick)
system.l2_cache.ReadSharedReq.missLatency::cpu.data 172641213000                       # number of ReadSharedReq miss ticks (Tick)
system.l2_cache.ReadSharedReq.missLatency::total 178439621000                       # number of ReadSharedReq miss ticks (Tick)
system.l2_cache.ReadSharedReq.accesses::cpu.inst      5533442                       # number of ReadSharedReq accesses(hits+misses) (Count)
system.l2_cache.ReadSharedReq.accesses::cpu.data      5046058                       # number of ReadSharedReq accesses(hits+misses) (Count)
system.l2_cache.ReadSharedReq.accesses::total     10579500                       # number of ReadSharedReq accesses(hits+misses) (Count)
system.l2_cache.ReadSharedReq.missRate::cpu.inst     0.013939                       # miss rate for ReadSharedReq accesses (Ratio)
system.l2_cache.ReadSharedReq.missRate::cpu.data     0.467179                       # miss rate for ReadSharedReq accesses (Ratio)
system.l2_cache.ReadSharedReq.missRate::total     0.230119                       # miss rate for ReadSharedReq accesses (Ratio)
system.l2_cache.ReadSharedReq.avgMissLatency::cpu.inst 75176.102994                       # average ReadSharedReq miss latency ((Tick/Count))
system.l2_cache.ReadSharedReq.avgMissLatency::cpu.data 73233.333743                       # average ReadSharedReq miss latency ((Tick/Count))
system.l2_cache.ReadSharedReq.avgMissLatency::total 73294.884381                       # average ReadSharedReq miss latency ((Tick/Count))
system.l2_cache.ReadSharedReq.mshrMisses::cpu.inst        77131                       # number of ReadSharedReq MSHR misses (Count)
system.l2_cache.ReadSharedReq.mshrMisses::cpu.data      2357413                       # number of ReadSharedReq MSHR misses (Count)
system.l2_cache.ReadSharedReq.mshrMisses::total      2434544                       # number of ReadSharedReq MSHR misses (Count)
system.l2_cache.ReadSharedReq.mshrMissLatency::cpu.inst   5721277000                       # number of ReadSharedReq MSHR miss ticks (Tick)
system.l2_cache.ReadSharedReq.mshrMissLatency::cpu.data 170283800000                       # number of ReadSharedReq MSHR miss ticks (Tick)
system.l2_cache.ReadSharedReq.mshrMissLatency::total 176005077000                       # number of ReadSharedReq MSHR miss ticks (Tick)
system.l2_cache.ReadSharedReq.mshrMissRate::cpu.inst     0.013939                       # mshr miss rate for ReadSharedReq accesses (Ratio)
system.l2_cache.ReadSharedReq.mshrMissRate::cpu.data     0.467179                       # mshr miss rate for ReadSharedReq accesses (Ratio)
system.l2_cache.ReadSharedReq.mshrMissRate::total     0.230119                       # mshr miss rate for ReadSharedReq accesses (Ratio)
system.l2_cache.ReadSharedReq.avgMshrMissLatency::cpu.inst 74176.102994                       # average ReadSharedReq mshr miss latency ((Tick/Count))
system.l2_cache.ReadSharedReq.avgMshrMissLatency::cpu.data 72233.333743                       # average ReadSharedReq mshr miss latency ((Tick/Count))
system.l2_cache.ReadSharedReq.avgMshrMissLatency::total 72294.884381                       # average ReadSharedReq mshr miss latency ((Tick/Count))
system.l2_cache.WritebackDirty.hits::writebacks      3206152                       # number of WritebackDirty hits (Count)
system.l2_cache.WritebackDirty.hits::total      3206152                       # number of WritebackDirty hits (Count)
system.l2_cache.WritebackDirty.accesses::writebacks      3206152                       # number of WritebackDirty accesses(hits+misses) (Count)
system.l2_cache.WritebackDirty.accesses::total      3206152                       # number of WritebackDirty accesses(hits+misses) (Count)
system.l2_cache.power_state.pwrStateResidencyTicks::UNDEFINED 1030680048000                       # Cumulative time (in ticks) in various power states (Tick)
system.l2_cache.tags.tagsInUse             511.987940                       # Average ticks per tags in use ((Tick/Count))
system.l2_cache.tags.totalRefs               23341971                       # Total number of references to valid blocks. (Count)
system.l2_cache.tags.sampledRefs              3200091                       # Sample count of references to valid blocks. (Count)
system.l2_cache.tags.avgRefs                 7.294159                       # Average number of references to valid blocks. ((Count/Count))
system.l2_cache.tags.warmupTick                 77000                       # The tick when the warmup percentage was hit. (Tick)
system.l2_cache.tags.occupancies::writebacks     2.946228                       # Average occupied blocks per tick, per requestor ((Count/Tick))
system.l2_cache.tags.occupancies::cpu.inst    26.434202                       # Average occupied blocks per tick, per requestor ((Count/Tick))
system.l2_cache.tags.occupancies::cpu.data   482.607510                       # Average occupied blocks per tick, per requestor ((Count/Tick))
system.l2_cache.tags.avgOccs::writebacks     0.005754                       # Average percentage of cache occupancy ((Ratio/Tick))
system.l2_cache.tags.avgOccs::cpu.inst       0.051629                       # Average percentage of cache occupancy ((Ratio/Tick))
system.l2_cache.tags.avgOccs::cpu.data       0.942593                       # Average percentage of cache occupancy ((Ratio/Tick))
system.l2_cache.tags.avgOccs::total          0.999976                       # Average percentage of cache occupancy ((Ratio/Tick))
system.l2_cache.tags.occupanciesTaskId::1024          512                       # Occupied blocks per task id (Count)
system.l2_cache.tags.ageTaskId_1024::0            116                       # Occupied blocks per task id, per block age (Count)
system.l2_cache.tags.ageTaskId_1024::1            384                       # Occupied blocks per task id, per block age (Count)
system.l2_cache.tags.ageTaskId_1024::2             12                       # Occupied blocks per task id, per block age (Count)
system.l2_cache.tags.ratioOccsTaskId::1024            1                       # Ratio of occupied blocks and all blocks, per task id (Ratio)
system.l2_cache.tags.tagAccesses            190287867                       # Number of tag accesses (Count)
system.l2_cache.tags.dataAccesses           190287867                       # Number of data accesses (Count)
system.l2_cache.tags.power_state.pwrStateResidencyTicks::UNDEFINED 1030680048000                       # Cumulative time (in ticks) in various power states (Tick)
system.mem_ctrl.avgPriority_writebacks::samples   1723499.00                       # Average QoS priority value for accepted requests (Count)
system.mem_ctrl.avgPriority_cpu.inst::samples     77131.00                       # Average QoS priority value for accepted requests (Count)
system.mem_ctrl.avgPriority_cpu.data::samples   3095510.00                       # Average QoS priority value for accepted requests (Count)
system.mem_ctrl.priorityMinLatency       0.000000018750                       # per QoS priority minimum request to response latency (Second)
system.mem_ctrl.priorityMaxLatency       0.000809674750                       # per QoS priority maximum request to response latency (Second)
system.mem_ctrl.numReadWriteTurnArounds        100806                       # Number of turnarounds from READ to WRITE (Count)
system.mem_ctrl.numWriteReadTurnArounds        100806                       # Number of turnarounds from WRITE to READ (Count)
system.mem_ctrl.numStayReadState              8270420                       # Number of times bus staying in READ state (Count)
system.mem_ctrl.numStayWriteState             1624314                       # Number of times bus staying in WRITE state (Count)
system.mem_ctrl.readReqs                      3188793                       # Number of read requests accepted (Count)
system.mem_ctrl.writeReqs                     1723607                       # Number of write requests accepted (Count)
system.mem_ctrl.readBursts                    3188793                       # Number of controller read bursts, including those serviced by the write queue (Count)
system.mem_ctrl.writeBursts                   1723607                       # Number of controller write bursts, including those merged in the write queue (Count)
system.mem_ctrl.servicedByWrQ                   16152                       # Number of controller read bursts serviced by the write queue (Count)
system.mem_ctrl.mergedWrBursts                    108                       # Number of controller write bursts merged with an existing one (Count)
system.mem_ctrl.neitherReadNorWriteReqs             0                       # Number of requests that are neither read nor write (Count)
system.mem_ctrl.avgRdQLen                        1.01                       # Average read queue length when enqueuing ((Count/Tick))
system.mem_ctrl.avgWrQLen                       24.79                       # Average write queue length when enqueuing ((Count/Tick))
system.mem_ctrl.numRdRetry                          0                       # Number of times read queue was full causing retry (Count)
system.mem_ctrl.numWrRetry                          0                       # Number of times write queue was full causing retry (Count)
system.mem_ctrl.readPktSize::0                      0                       # Read request sizes (log2) (Count)
system.mem_ctrl.readPktSize::1                      0                       # Read request sizes (log2) (Count)
system.mem_ctrl.readPktSize::2                      0                       # Read request sizes (log2) (Count)
system.mem_ctrl.readPktSize::3                      0                       # Read request sizes (log2) (Count)
system.mem_ctrl.readPktSize::4                      0                       # Read request sizes (log2) (Count)
system.mem_ctrl.readPktSize::5                      0                       # Read request sizes (log2) (Count)
system.mem_ctrl.readPktSize::6                3188793                       # Read request sizes (log2) (Count)
system.mem_ctrl.writePktSize::0                     0                       # Write request sizes (log2) (Count)
system.mem_ctrl.writePktSize::1                     0                       # Write request sizes (log2) (Count)
system.mem_ctrl.writePktSize::2                     0                       # Write request sizes (log2) (Count)
system.mem_ctrl.writePktSize::3                     0                       # Write request sizes (log2) (Count)
system.mem_ctrl.writePktSize::4                     0                       # Write request sizes (log2) (Count)
system.mem_ctrl.writePktSize::5                     0                       # Write request sizes (log2) (Count)
system.mem_ctrl.writePktSize::6               1723607                       # Write request sizes (log2) (Count)
system.mem_ctrl.rdQLenPdf::0                  3114312                       # What read queue length does an incoming req see (Count)
system.mem_ctrl.rdQLenPdf::1                    52518                       # What read queue length does an incoming req see (Count)
system.mem_ctrl.rdQLenPdf::2                     5811                       # What read queue length does an incoming req see (Count)
system.mem_ctrl.rdQLenPdf::3                        0                       # What read queue length does an incoming req see (Count)
system.mem_ctrl.rdQLenPdf::4                        0                       # What read queue length does an incoming req see (Count)
system.mem_ctrl.rdQLenPdf::5                        0                       # What read queue length does an incoming req see (Count)
system.mem_ctrl.rdQLenPdf::6                        0                       # What read queue length does an incoming req see (Count)
system.mem_ctrl.rdQLenPdf::7                        0                       # What read queue length does an incoming req see (Count)
system.mem_ctrl.rdQLenPdf::8                        0                       # What read queue length does an incoming req see (Count)
system.mem_ctrl.rdQLenPdf::9                        0                       # What read queue length does an incoming req see (Count)
system.mem_ctrl.rdQLenPdf::10                       0                       # What read queue length does an incoming req see (Count)
system.mem_ctrl.rdQLenPdf::11                       0                       # What read queue length does an incoming req see (Count)
system.mem_ctrl.rdQLenPdf::12                       0                       # What read queue length does an incoming req see (Count)
system.mem_ctrl.rdQLenPdf::13                       0                       # What read queue length does an incoming req see (Count)
system.mem_ctrl.rdQLenPdf::14                       0                       # What read queue length does an incoming req see (Count)
system.mem_ctrl.rdQLenPdf::15                       0                       # What read queue length does an incoming req see (Count)
system.mem_ctrl.rdQLenPdf::16                       0                       # What read queue length does an incoming req see (Count)
[...]
system.mem_ctrl.dram.bytesWritten::total        44928                       # Number of bytes written to this memory (Byte)
system.mem_ctrl.dram.numReads::cpu.inst           930                       # Number of read requests responded to by this memory (Count)
system.mem_ctrl.dram.numReads::cpu.data          3894                       # Number of read requests responded to by this memory (Count)
system.mem_ctrl.dram.numReads::total             4824                       # Number of read requests responded to by this memory (Count)
system.mem_ctrl.dram.numWrites::writebacks          702                       # Number of write requests responded to by this memory (Count)
system.mem_ctrl.dram.numWrites::total             702                       # Number of write requests responded to by this memory (Count)
system.mem_ctrl.dram.bwRead::cpu.inst       111731634                       # Total read bandwidth from this memory ((Byte/Second))
system.mem_ctrl.dram.bwRead::cpu.data       467831164                       # Total read bandwidth from this memory ((Byte/Second))
system.mem_ctrl.dram.bwRead::total          579562797                       # Total read bandwidth from this memory ((Byte/Second))
system.mem_ctrl.dram.bwInstRead::cpu.inst    111731634                       # Instruction read bandwidth from this memory ((Byte/Second))
system.mem_ctrl.dram.bwInstRead::total      111731634                       # Instruction read bandwidth from this memory ((Byte/Second))
system.mem_ctrl.dram.bwWrite::writebacks     84339362                       # Write bandwidth from this memory ((Byte/Second))
system.mem_ctrl.dram.bwWrite::total          84339362                       # Write bandwidth from this memory ((Byte/Second))
system.mem_ctrl.dram.bwTotal::writebacks     84339362                       # Total bandwidth to/from this memory ((Byte/Second))
system.mem_ctrl.dram.bwTotal::cpu.inst      111731634                       # Total bandwidth to/from this memory ((Byte/Second))
system.mem_ctrl.dram.bwTotal::cpu.data      467831164                       # Total bandwidth to/from this memory ((Byte/Second))
system.mem_ctrl.dram.bwTotal::total         663902160                       # Total bandwidth to/from this memory ((Byte/Second))
system.mem_ctrl.dram.readBursts                  4811                       # Number of DRAM read bursts (Count)
system.mem_ctrl.dram.writeBursts                  698                       # Number of DRAM write bursts (Count)
system.mem_ctrl.dram.perBankRdBursts::0           408                       # Per bank write bursts (Count)
system.mem_ctrl.dram.perBankRdBursts::1           313                       # Per bank write bursts (Count)
system.mem_ctrl.dram.perBankRdBursts::2           335                       # Per bank write bursts (Count)
system.mem_ctrl.dram.perBankRdBursts::3           350                       # Per bank write bursts (Count)
system.mem_ctrl.dram.perBankRdBursts::4           297                       # Per bank write bursts (Count)
system.mem_ctrl.dram.perBankRdBursts::5           468                       # Per bank write bursts (Count)
system.mem_ctrl.dram.perBankRdBursts::6           365                       # Per bank write bursts (Count)
system.mem_ctrl.dram.perBankRdBursts::7           243                       # Per bank write bursts (Count)
system.mem_ctrl.dram.perBankRdBursts::8           181                       # Per bank write bursts (Count)
system.mem_ctrl.dram.perBankRdBursts::9           246                       # Per bank write bursts (Count)
system.mem_ctrl.dram.perBankRdBursts::10          195                       # Per bank write bursts (Count)
system.mem_ctrl.dram.perBankRdBursts::11          201                       # Per bank write bursts (Count)
system.mem_ctrl.dram.perBankRdBursts::12          221                       # Per bank write bursts (Count)
system.mem_ctrl.dram.perBankRdBursts::13          323                       # Per bank write bursts (Count)
system.mem_ctrl.dram.perBankRdBursts::14          231                       # Per bank write bursts (Count)
system.mem_ctrl.dram.perBankRdBursts::15          434                       # Per bank write bursts (Count)
system.mem_ctrl.dram.perBankWrBursts::0            34                       # Per bank write bursts (Count)
system.mem_ctrl.dram.perBankWrBursts::1             9                       # Per bank write bursts (Count)
system.mem_ctrl.dram.perBankWrBursts::2             0                       # Per bank write bursts (Count)
system.mem_ctrl.dram.perBankWrBursts::3             0                       # Per bank write bursts (Count)
system.mem_ctrl.dram.perBankWrBursts::4            10                       # Per bank write bursts (Count)
system.mem_ctrl.dram.perBankWrBursts::5             2                       # Per bank write bursts (Count)
system.mem_ctrl.dram.perBankWrBursts::6             9                       # Per bank write bursts (Count)
system.mem_ctrl.dram.perBankWrBursts::7            83                       # Per bank write bursts (Count)
system.mem_ctrl.dram.perBankWrBursts::8           111                       # Per bank write bursts (Count)
system.mem_ctrl.dram.perBankWrBursts::9           129                       # Per bank write bursts (Count)
system.mem_ctrl.dram.perBankWrBursts::10          118                       # Per bank write bursts (Count)
system.mem_ctrl.dram.perBankWrBursts::11           38                       # Per bank write bursts (Count)
system.mem_ctrl.dram.perBankWrBursts::12            8                       # Per bank write bursts (Count)
system.mem_ctrl.dram.perBankWrBursts::13           63                       # Per bank write bursts (Count)
system.mem_ctrl.dram.perBankWrBursts::14            3                       # Per bank write bursts (Count)
system.mem_ctrl.dram.perBankWrBursts::15           81                       # Per bank write bursts (Count)
system.mem_ctrl.dram.totQLat                 37112000                       # Total ticks spent queuing (Tick)
system.mem_ctrl.dram.totBusLat               24055000                       # Total ticks spent in databus transfers (Tick)
system.mem_ctrl.dram.totMemAccLat           127318250                       # Total ticks spent from burst creation until serviced by the DRAM (Tick)
system.mem_ctrl.dram.avgQLat                  7713.99                       # Average queueing delay per DRAM burst ((Tick/Count))
system.mem_ctrl.dram.avgBusLat                5000.00                       # Average bus latency per DRAM burst ((Tick/Count))
system.mem_ctrl.dram.avgMemAccLat            26463.99                       # Average memory access latency per DRAM burst ((Tick/Count))
system.mem_ctrl.dram.readRowHits                 3799                       # Number of row buffer hits during reads (Count)
system.mem_ctrl.dram.writeRowHits                 569                       # Number of row buffer hits during writes (Count)
system.mem_ctrl.dram.readRowHitRate             78.96                       # Row buffer hit rate for reads (Ratio)
system.mem_ctrl.dram.writeRowHitRate            81.52                       # Row buffer hit rate for writes (Ratio)
system.mem_ctrl.dram.bytesPerActivate::samples         1151                       # Bytes accessed per row activation (Byte)
system.mem_ctrl.dram.bytesPerActivate::mean   308.990443                       # Bytes accessed per row activation (Byte)
system.mem_ctrl.dram.bytesPerActivate::gmean   168.220582                       # Bytes accessed per row activation (Byte)
system.mem_ctrl.dram.bytesPerActivate::stdev   355.365736                       # Bytes accessed per row activation (Byte)
system.mem_ctrl.dram.bytesPerActivate::0-127          502     43.61%     43.61% # Bytes accessed per row activation (Byte)
system.mem_ctrl.dram.bytesPerActivate::128-255          260     22.59%     66.20% # Bytes accessed per row activation (Byte)
system.mem_ctrl.dram.bytesPerActivate::256-383           77      6.69%     72.89% # Bytes accessed per row activation (Byte)
system.mem_ctrl.dram.bytesPerActivate::384-511           48      4.17%     77.06% # Bytes accessed per row activation (Byte)
system.mem_ctrl.dram.bytesPerActivate::512-639           29      2.52%     79.58% # Bytes accessed per row activation (Byte)
system.mem_ctrl.dram.bytesPerActivate::640-767           17      1.48%     81.06% # Bytes accessed per row activation (Byte)
system.mem_ctrl.dram.bytesPerActivate::768-895           21      1.82%     82.88% # Bytes accessed per row activation (Byte)
system.mem_ctrl.dram.bytesPerActivate::896-1023           21      1.82%     84.71% # Bytes accessed per row activation (Byte)
system.mem_ctrl.dram.bytesPerActivate::1024-1151          176     15.29%    100.00% # Bytes accessed per row activation (Byte)
system.mem_ctrl.dram.bytesPerActivate::total         1151                       # Bytes accessed per row activation (Byte)
system.mem_ctrl.dram.dramBytesRead             307904                       # Total bytes read (Byte)
system.mem_ctrl.dram.dramBytesWritten           44672                       # Total bytes written (Byte)
system.mem_ctrl.dram.avgRdBW               578.000957                       # Average DRAM read bandwidth in MiBytes/s ((Byte/Second))
system.mem_ctrl.dram.avgWrBW                83.858796                       # Average DRAM write bandwidth in MiBytes/s ((Byte/Second))
system.mem_ctrl.dram.peakBW                  12800.00                       # Theoretical peak bandwidth in MiByte/s ((Byte/Second))
system.mem_ctrl.dram.busUtil                     5.17                       # Data bus utilization in percentage (Ratio)
system.mem_ctrl.dram.busUtilRead                 4.52                       # Data bus utilization in percentage for reads (Ratio)
system.mem_ctrl.dram.busUtilWrite                0.66                       # Data bus utilization in percentage for writes (Ratio)
system.mem_ctrl.dram.pageHitRate                79.29                       # Row buffer hit rate, read and write combined (Ratio)
system.mem_ctrl.dram.power_state.pwrStateResidencyTicks::UNDEFINED    532705000                       # Cumulative time (in ticks) in various power states (Tick)
system.mem_ctrl.dram.rank0.actEnergy          4034100                       # Energy for activate commands per rank (pJ) (Joule)
system.mem_ctrl.dram.rank0.preEnergy          2159355                       # Energy for precharge commands per rank (pJ) (Joule)
system.mem_ctrl.dram.rank0.readEnergy        19842060                       # Energy for read commands per rank (pJ) (Joule)
system.mem_ctrl.dram.rank0.writeEnergy         767340                       # Energy for write commands per rank (pJ) (Joule)
system.mem_ctrl.dram.rank0.refreshEnergy 42410160.000000                       # Energy for refresh commands per rank (pJ) (Joule)
system.mem_ctrl.dram.rank0.actBackEnergy    194992440                       # Energy for active background per rank (pJ) (Joule)
system.mem_ctrl.dram.rank0.preBackEnergy     40354560                       # Energy for precharge background per rank (pJ) (Joule)
system.mem_ctrl.dram.rank0.actPowerDownEnergy            0                       # Energy for active power-down per rank (pJ) (Joule)
system.mem_ctrl.dram.rank0.prePowerDownEnergy            0                       # Energy for precharge power-down per rank (pJ) (Joule)
system.mem_ctrl.dram.rank0.selfRefreshEnergy            0                       # Energy for self refresh per rank (pJ) (Joule)
system.mem_ctrl.dram.rank0.totalEnergy      304560015                       # Total energy per rank (pJ) (Joule)
system.mem_ctrl.dram.rank0.averagePower    571.723590                       # Core power per rank (mW) (Watt)
system.mem_ctrl.dram.rank0.totalIdleTime            0                       # Total Idle time Per DRAM Rank (Tick)
system.mem_ctrl.dram.rank0.pwrStateTime::IDLE    102443250                       # Time in different power states (Tick)
system.mem_ctrl.dram.rank0.pwrStateTime::REF     17940000                       # Time in different power states (Tick)
system.mem_ctrl.dram.rank0.pwrStateTime::SREF            0                       # Time in different power states (Tick)
system.mem_ctrl.dram.rank0.pwrStateTime::PRE_PDN            0                       # Time in different power states (Tick)
system.mem_ctrl.dram.rank0.pwrStateTime::ACT    412321750                       # Time in different power states (Tick)
system.mem_ctrl.dram.rank0.pwrStateTime::ACT_PDN            0                       # Time in different power states (Tick)
system.mem_ctrl.dram.rank1.actEnergy          4112640                       # Energy for activate commands per rank (pJ) (Joule)
system.mem_ctrl.dram.rank1.preEnergy          2208690                       # Energy for precharge commands per rank (pJ) (Joule)
system.mem_ctrl.dram.rank1.readEnergy        14508480                       # Energy for read commands per rank (pJ) (Joule)
system.mem_ctrl.dram.rank1.writeEnergy        2876220                       # Energy for write commands per rank (pJ) (Joule)
system.mem_ctrl.dram.rank1.refreshEnergy 42410160.000000                       # Energy for refresh commands per rank (pJ) (Joule)
system.mem_ctrl.dram.rank1.actBackEnergy    211295010                       # Energy for active background per rank (pJ) (Joule)
system.mem_ctrl.dram.rank1.preBackEnergy     26626080                       # Energy for precharge background per rank (pJ) (Joule)
system.mem_ctrl.dram.rank1.actPowerDownEnergy            0                       # Energy for active power-down per rank (pJ) (Joule)
system.mem_ctrl.dram.rank1.prePowerDownEnergy            0                       # Energy for precharge power-down per rank (pJ) (Joule)
system.mem_ctrl.dram.rank1.selfRefreshEnergy            0                       # Energy for self refresh per rank (pJ) (Joule)
system.mem_ctrl.dram.rank1.totalEnergy      304037280                       # Total energy per rank (pJ) (Joule)
system.mem_ctrl.dram.rank1.averagePower    570.742306                       # Core power per rank (mW) (Watt)
system.mem_ctrl.dram.rank1.totalIdleTime            0                       # Total Idle time Per DRAM Rank (Tick)
system.mem_ctrl.dram.rank1.pwrStateTime::IDLE     67064750                       # Time in different power states (Tick)
system.mem_ctrl.dram.rank1.pwrStateTime::REF     17940000                       # Time in different power states (Tick)
system.mem_ctrl.dram.rank1.pwrStateTime::SREF            0                       # Time in different power states (Tick)
system.mem_ctrl.dram.rank1.pwrStateTime::PRE_PDN            0                       # Time in different power states (Tick)
system.mem_ctrl.dram.rank1.pwrStateTime::ACT    447700250                       # Time in different power states (Tick)
system.mem_ctrl.dram.rank1.pwrStateTime::ACT_PDN            0                       # Time in different power states (Tick)
system.mem_ctrl.power_state.pwrStateResidencyTicks::UNDEFINED    532705000                       # Cumulative time (in ticks) in various power states (Tick)
system.membus.transDist::ReadResp                4740                       # Transaction distribution (Count)
system.membus.transDist::WritebackDirty           702                       # Transaction distribution (Count)
system.membus.transDist::CleanEvict              4177                       # Transaction distribution (Count)
system.membus.transDist::ReadExReq                 84                       # Transaction distribution (Count)
system.membus.transDist::ReadExResp                84                       # Transaction distribution (Count)
system.membus.transDist::ReadSharedReq           4740                       # Transaction distribution (Count)
system.membus.pktCount_system.l2_cache.mem_side_port::system.mem_ctrl.port        14527                       # Packet count per connected requestor and responder (Count)
system.membus.pktCount_system.l2_cache.mem_side_port::total        14527                       # Packet count per connected requestor and responder (Count)
system.membus.pktCount::total                   14527                       # Packet count per connected requestor and responder (Count)
system.membus.pktSize_system.l2_cache.mem_side_port::system.mem_ctrl.port       353664                       # Cumulative packet size per connected requestor and responder (Byte)
system.membus.pktSize_system.l2_cache.mem_side_port::total       353664                       # Cumulative packet size per connected requestor and responder (Byte)
system.membus.pktSize::total                   353664                       # Cumulative packet size per connected requestor and responder (Byte)
system.membus.snoops                                0                       # Total snoops (Count)
system.membus.snoopTraffic                          0                       # Total snoop traffic (Byte)
system.membus.snoopFanout::samples               4824                       # Request fanout histogram (Count)
system.membus.snoopFanout::mean                     0                       # Request fanout histogram (Count)
system.membus.snoopFanout::stdev                    0                       # Request fanout histogram (Count)
system.membus.snoopFanout::underflows               0      0.00%      0.00% # Request fanout histogram (Count)
system.membus.snoopFanout::0                     4824    100.00%    100.00% # Request fanout histogram (Count)
system.membus.snoopFanout::1                        0      0.00%    100.00% # Request fanout histogram (Count)
system.membus.snoopFanout::overflows                0      0.00%    100.00% # Request fanout histogram (Count)
system.membus.snoopFanout::min_value                0                       # Request fanout histogram (Count)
system.membus.snoopFanout::max_value                0                       # Request fanout histogram (Count)
system.membus.snoopFanout::total                 4824                       # Request fanout histogram (Count)
system.membus.power_state.pwrStateResidencyTicks::UNDEFINED    532705000                       # Cumulative time (in ticks) in various power states (Tick)
system.membus.reqLayer2.occupancy            12511000                       # Layer occupancy (ticks) (Tick)
system.membus.reqLayer2.utilization               0.0                       # Layer utilization (Ratio)
system.membus.respLayer2.occupancy           25657750                       # Layer occupancy (ticks) (Tick)
system.membus.respLayer2.utilization              0.0                       # Layer utilization (Ratio)
system.membus.snoop_filter.totRequests           9703                       # Total number of requests made to the snoop filter. (Count)
system.membus.snoop_filter.hitSingleRequests         4879                       # Number of requests hitting in the snoop filter with a single holder of the requested data. (Count)
system.membus.snoop_filter.hitMultiRequests            0                       # Number of requests hitting in the snoop filter with multiple (>1) holders of the requested data. (Count)
system.membus.snoop_filter.totSnoops                0                       # Total number of snoops made to the snoop filter. (Count)
system.membus.snoop_filter.hitSingleSnoops            0                       # Number of snoops hitting in the snoop filter with a single holder of the requested data. (Count)
system.membus.snoop_filter.hitMultiSnoops            0                       # Number of snoops hitting in the snoop filter with multiple (>1) holders of the requested data. (Count)
system.workload.inst.arm                            0                       # number of arm instructions executed (Count)
system.workload.inst.quiesce                        0                       # number of quiesce instructions executed (Count)

---------- End Simulation Statistics   ----------
