
---------- Begin Simulation Statistics ----------
simSeconds                                   1.012372                       # Number of seconds simulated (Second)
simTicks                                 1012371739000                       # Number of ticks simulated (Tick)
finalTick                                1012371739000                       # Number of ticks from beginning of simulation (restored from checkpoints and never reset) (Tick)
simFreq                                  1000000000000                       # The number of ticks per simulated second ((Tick/Second))
hostSeconds                                    473.24                       # Real time elapsed on the host (Second)
hostTickRate                               2139246022                       # The number of ticks simulated per host second (ticks/s) ((Tick/Second))
hostMemory                                    8617232                       # Number of bytes of host memory used (Byte)
simInsts                                    380850867                       # Number of instructions simulated (Count)
simOps                                      834718878                       # Number of ops (including micro ops) simulated (Count)
hostInstRate                                   804776                       # Simulator instruction rate (inst/s) ((Count/Second))
hostOpRate                                    1763840                       # Simulator op (including micro ops) rate (op/s) ((Count/Second))
system.clk_domain.clock                          1000                       # Clock period in ticks (Tick)
system.clk_domain.voltage_domain.voltage            1                       # Voltage in Volts (Volt)
system.cpu.numCycles                       1012371739                       # Number of cpu cycles simulated (Cycle)
system.cpu.cpi                               2.658129                       # CPI: cycles per instruction (core level) ((Cycle/Count))
system.cpu.ipc                               0.376204                       # IPC: instructions per cycle (core level) ((Count/Cycle))
system.cpu.numWorkItemsStarted                      0                       # Number of work items this cpu started (Count)
system.cpu.numWorkItemsCompleted                    0                       # Number of work items this cpu completed (Count)
system.cpu.commitStats0.numInsts            380858701                       # Number of instructions committed (thread level) (Count)
system.cpu.commitStats0.numOps              834726898                       # Number of ops (including micro ops) committed (thread level) (Count)
system.cpu.commitStats0.numInstsNotNOP              0                       # Number of instructions committed excluding NOPs or prefetches (Count)
system.cpu.commitStats0.numOpsNotNOP                0                       # Number of Ops (including micro ops) Simulated (Count)
system.cpu.commitStats0.cpi                  2.658129                       # CPI: cycles per instruction (thread level) ((Cycle/Count))
system.cpu.commitStats0.ipc                  0.376204                       # IPC: instructions per cycle (thread level) ((Count/Cycle))
system.cpu.commitStats0.numMemRefs                  0                       # Number of memory references committed (Count)
system.cpu.commitStats0.numFpInsts             368531                       # Number of float instructions (Count)
system.cpu.commitStats0.numIntInsts         834371110                       # Number of integer instructions (Count)
system.cpu.commitStats0.numLoadInsts        151465768                       # Number of load instructions (Count)
system.cpu.commitStats0.numStoreInsts        75481202                       # Number of store instructions (Count)
system.cpu.commitStats0.numVecInsts                 0                       # Number of vector instructions (Count)
system.cpu.commitStats0.committedInstType::No_OpClass       142440      0.02%      0.02% # Class of committed instruction. (Count)
system.cpu.commitStats0.committedInstType::IntAlu    607365451     72.76%     72.78% # Class of committed instruction. (Count)
system.cpu.commitStats0.committedInstType::IntMult        14984      0.00%     72.78% # Class of committed instruction. (Count)
system.cpu.commitStats0.committedInstType::IntDiv        38759      0.00%     72.79% # Class of committed instruction. (Count)
system.cpu.commitStats0.committedInstType::FloatAdd        36905      0.00%     72.79% # Class of committed instruction. (Count)
system.cpu.commitStats0.committedInstType::FloatCmp            0      0.00%     72.79% # Class of committed instruction. (Count)
system.cpu.commitStats0.committedInstType::FloatCvt         1232      0.00%     72.79% # Class of committed instruction. (Count)
system.cpu.commitStats0.committedInstType::FloatMult            0      0.00%     72.79% # Class of committed instruction. (Count)
system.cpu.commitStats0.committedInstType::FloatMultAcc            0      0.00%     72.79% # Class of committed instruction. (Count)
system.cpu.commitStats0.committedInstType::FloatDiv            0      0.00%     72.79% # Class of committed instruction. (Count)
system.cpu.commitStats0.committedInstType::FloatMisc            0      0.00%     72.79% # Class of committed instruction. (Count)
system.cpu.commitStats0.committedInstType::FloatSqrt            0      0.00%     72.79% # Class of committed instruction. (Count)
system.cpu.commitStats0.committedInstType::SimdAdd         6510      0.00%     72.79% # Class of committed instruction. (Count)
system.cpu.commitStats0.committedInstType::SimdAddAcc            0      0.00%     72.79% # Class of committed instruction. (Count)
system.cpu.commitStats0.committedInstType::SimdAlu        47986      0.01%     72.80% # Class of committed instruction. (Count)
system.cpu.commitStats0.committedInstType::SimdCmp           12      0.00%     72.80% # Class of committed instruction. (Count)
system.cpu.commitStats0.committedInstType::SimdCvt        13514      0.00%     72.80% # Class of committed instruction. (Count)
system.cpu.commitStats0.committedInstType::SimdMisc        80428      0.01%     72.81% # Class of committed instruction. (Count)
system.cpu.commitStats0.committedInstType::SimdMult            0      0.00%     72.81% # Class of committed instruction. (Count)
system.cpu.commitStats0.committedInstType::SimdMultAcc            0      0.00%     72.81% # Class of committed instruction. (Count)
system.cpu.commitStats0.committedInstType::SimdMatMultAcc            0      0.00%     72.81% # Class of committed instruction. (Count)
system.cpu.commitStats0.committedInstType::SimdShift         1931      0.00%     72.81% # Class of committed instruction. (Count)
system.cpu.commitStats0.committedInstType::SimdShiftAcc            0      0.00%     72.81% # Class of committed instruction. (Count)
system.cpu.commitStats0.committedInstType::SimdDiv            0      0.00%     72.81% # Class of committed instruction. (Count)
system.cpu.commitStats0.committedInstType::SimdSqrt            0      0.00%     72.81% # Class of committed instruction. (Count)
system.cpu.commitStats0.committedInstType::SimdFloatAdd         7444      0.00%     72.81% # Class of committed instruction. (Count)
system.cpu.commitStats0.committedInstType::SimdFloatAlu            0      0.00%     72.81% # Class of committed instruction. (Count)
system.cpu.commitStats0.committedInstType::SimdFloatCmp            0      0.00%     72.81% # Class of committed instruction. (Count)
system.cpu.commitStats0.committedInstType::SimdFloatCvt        14888      0.00%     72.81% # Class of committed instruction. (Count)
system.cpu.commitStats0.committedInstType::SimdFloatDiv         7444      0.00%     72.81% # Class of committed instruction. (Count)
system.cpu.commitStats0.committedInstType::SimdFloatMisc            0      0.00%     72.81% # Class of committed instruction. (Count)
system.cpu.commitStats0.committedInstType::SimdFloatMult            0      0.00%     72.81% # Class of committed instruction. (Count)
system.cpu.commitStats0.committedInstType::SimdFloatMultAcc            0      0.00%     72.81% # Class of committed instruction. (Count)
system.cpu.commitStats0.committedInstType::SimdFloatMatMultAcc            0      0.00%     72.81% # Class of committed instruction. (Count)
system.cpu.commitStats0.committedInstType::SimdFloatSqrt            0      0.00%     72.81% # Class of committed instruction. (Count)
system.cpu.commitStats0.committedInstType::SimdReduceAdd            0      0.00%     72.81% # Class of committed instruction. (Count)
system.cpu.commitStats0.committedInstType::SimdReduceAlu            0      0.00%     72.81% # Class of committed instruction. (Count)
system.cpu.commitStats0.committedInstType::SimdReduceCmp            0      0.00%     72.81% # Class of committed instruction. (Count)
system.cpu.commitStats0.committedInstType::SimdFloatReduceAdd            0      0.00%     72.81% # Class of committed instruction. (Count)
system.cpu.commitStats0.committedInstType::SimdFloatReduceCmp            0      0.00%     72.81% # Class of committed instruction. (Count)
system.cpu.commitStats0.committedInstType::SimdAes            0      0.00%     72.81% # Class of committed instruction. (Count)
system.cpu.commitStats0.committedInstType::SimdAesMix            0      0.00%     72.81% # Class of committed instruction. (Count)
system.cpu.commitStats0.committedInstType::SimdSha1Hash            0      0.00%     72.81% # Class of committed instruction. (Count)
system.cpu.commitStats0.committedInstType::SimdSha1Hash2            0      0.00%     72.81% # Class of committed instruction. (Count)
system.cpu.commitStats0.committedInstType::SimdSha256Hash            0      0.00%     72.81% # Class of committed instruction. (Count)
system.cpu.commitStats0.committedInstType::SimdSha256Hash2            0      0.00%     72.81% # Class of committed instruction. (Count)
system.cpu.commitStats0.committedInstType::SimdShaSigma2            0      0.00%     72.81% # Class of committed instruction. (Count)
system.cpu.commitStats0.committedInstType::SimdShaSigma3            0      0.00%     72.81% # Class of committed instruction. (Count)
system.cpu.commitStats0.committedInstType::SimdPredAlu            0      0.00%     72.81% # Class of committed instruction. (Count)
system.cpu.commitStats0.committedInstType::Matrix            0      0.00%     72.81% # Class of committed instruction. (Count)
system.cpu.commitStats0.committedInstType::MatrixMov            0      0.00%     72.81% # Class of committed instruction. (Count)
system.cpu.commitStats0.committedInstType::MatrixOP            0      0.00%     72.81% # Class of committed instruction. (Count)
system.cpu.commitStats0.committedInstType::MemRead    151393834     18.14%     90.95% # Class of committed instruction. (Count)
system.cpu.commitStats0.committedInstType::MemWrite     75414204      9.03%     99.98% # Class of committed instruction. (Count)
system.cpu.commitStats0.committedInstType::FloatMemRead        71934      0.01%     99.99% # Class of committed instruction. (Count)
system.cpu.commitStats0.committedInstType::FloatMemWrite        66998      0.01%    100.00% # Class of committed instruction. (Count)
system.cpu.commitStats0.committedInstType::IprAccess            0      0.00%    100.00% # Class of committed instruction. (Count)
system.cpu.commitStats0.committedInstType::InstPrefetch            0      0.00%    100.00% # Class of committed instruction. (Count)
system.cpu.commitStats0.committedInstType::SimdUnitStrideLoad            0      0.00%    100.00% # Class of committed instruction. (Count)
system.cpu.commitStats0.committedInstType::SimdUnitStrideStore            0      0.00%    100.00% # Class of committed instruction. (Count)
system.cpu.commitStats0.committedInstType::SimdUnitStrideMaskLoad            0      0.00%    100.00% # Class of committed instruction. (Count)
system.cpu.commitStats0.committedInstType::SimdUnitStrideMaskStore            0      0.00%    100.00% # Class of committed instruction. (Count)
system.cpu.commitStats0.committedInstType::SimdStridedLoad            0      0.00%    100.00% # Class of committed instruction. (Count)
system.cpu.commitStats0.committedInstType::SimdStridedStore            0      0.00%    100.00% # Class of committed instruction. (Count)
system.cpu.commitStats0.committedInstType::SimdIndexedLoad            0      0.00%    100.00% # Class of committed instruction. (Count)
system.cpu.commitStats0.committedInstType::SimdIndexedStore            0      0.00%    100.00% # Class of committed instruction. (Count)
system.cpu.commitStats0.committedInstType::SimdWholeRegisterLoad            0      0.00%    100.00% # Class of committed instruction. (Count)
system.cpu.commitStats0.committedInstType::SimdWholeRegisterStore            0      0.00%    100.00% # Class of committed instruction. (Count)
system.cpu.commitStats0.committedInstType::SimdUnitStrideFaultOnlyFirstLoad            0      0.00%    100.00% # Class of committed instruction. (Count)
system.cpu.commitStats0.committedInstType::SimdUnitStrideSegmentedLoad            0      0.00%    100.00% # Class of committed instruction. (Count)
system.cpu.commitStats0.committedInstType::SimdUnitStrideSegmentedStore            0      0.00%    100.00% # Class of committed instruction. (Count)
system.cpu.commitStats0.committedInstType::SimdExt            0      0.00%    100.00% # Class of committed instruction. (Count)
system.cpu.commitStats0.committedInstType::SimdFloatExt            0      0.00%    100.00% # Class of committed instruction. (Count)
system.cpu.commitStats0.committedInstType::SimdConfig            0      0.00%    100.00% # Class of committed instruction. (Count)
system.cpu.commitStats0.committedInstType::total    834726898                       # Class of committed instruction. (Count)
system.cpu.commitStats0.committedControl::IsControl     76021465                       # Class of control type instructions committed (Count)
system.cpu.commitStats0.committedControl::IsDirectControl     75878870                       # Class of control type instructions committed (Count)
system.cpu.commitStats0.committedControl::IsIndirectControl       142314                       # Class of control type instructions committed (Count)
system.cpu.commitStats0.committedControl::IsCondControl     75693266                       # Class of control type instructions committed (Count)
system.cpu.commitStats0.committedControl::IsUncondControl       327918                       # Class of control type instructions committed (Count)
system.cpu.commitStats0.committedControl::IsCall       114165                       # Class of control type instructions committed (Count)
system.cpu.commitStats0.committedControl::IsReturn       114160                       # Class of control type instructions committed (Count)
system.cpu.exec_context.thread_0.numMatAluAccesses            0                       # Number of matrix alu accesses (Count)
system.cpu.exec_context.thread_0.numCallsReturns       228325                       # Number of times a function call or return occured (Count)
system.cpu.exec_context.thread_0.numMatInsts            0                       # Number of matrix instructions (Count)
system.cpu.exec_context.thread_0.numIdleCycles            0                       # Number of idle cycles (Cycle)
system.cpu.exec_context.thread_0.numBusyCycles   1012371739                       # Number of busy cycles (Cycle)
system.cpu.exec_context.thread_0.notIdleFraction            1                       # Percentage of non-idle cycles (Ratio)
system.cpu.exec_context.thread_0.idleFraction            0                       # Percentage of idle cycles (Ratio)
system.cpu.executeStats0.numInsts                   0                       # Number of executed instructions (Count)
system.cpu.executeStats0.numNop                     0                       # Number of nop insts executed (Count)
system.cpu.executeStats0.numBranches                0                       # Number of branches executed (Count)
system.cpu.executeStats0.numLoadInsts               0                       # Number of load instructions executed (Count)
system.cpu.executeStats0.numStoreInsts      226946970                       # Number of stores executed (Count)
system.cpu.executeStats0.instRate                   0                       # Inst execution rate ((Count/Cycle))
system.cpu.executeStats0.numFpAluAccesses       368531                       # Number of float alu accesses (Count)
system.cpu.executeStats0.numFpRegReads         465538                       # Number of times the floating registers were read (Count)
system.cpu.executeStats0.numFpRegWrites        278438                       # Number of times the floating registers were written (Count)
system.cpu.executeStats0.numIntAluAccesses    834371110                       # Number of integer alu accesses (Count)
system.cpu.executeStats0.numIntRegReads    1060954318                       # Number of times the integer registers were read (Count)
system.cpu.executeStats0.numIntRegWrites    607225256                       # Number of times the integer registers were written (Count)
system.cpu.executeStats0.numMemRefs         226946970                       # Number of memory refs (Count)
system.cpu.executeStats0.numMiscRegReads    378982955                       # Number of times the Misc registers were read (Count)
system.cpu.executeStats0.numMiscRegWrites          693                       # Number of times the Misc registers were written (Count)
system.cpu.executeStats0.numVecAluAccesses            0                       # Number of vector alu accesses (Count)
system.cpu.executeStats0.numDiscardedOps            0                       # Number of ops (including micro ops) which were discarded before commit (Count)
system.cpu.fetchStats0.numInsts             380858701                       # Number of instructions fetched (thread level) (Count)
system.cpu.fetchStats0.numOps               834726898                       # Number of ops (including micro ops) fetched (thread level) (Count)
system.cpu.fetchStats0.fetchRate             0.376204                       # Number of inst fetches per cycle ((Count/Cycle))
system.cpu.fetchStats0.numBranches           76021465                       # Number of branches fetched (Count)
system.cpu.fetchStats0.branchRate            0.075092                       # Number of branch fetches per cycle (Ratio)
system.cpu.fetchStats0.numFetchSuspends             0                       # Number of times Execute suspended instruction fetching (Count)
system.cpu.interrupts.clk_domain.clock          16000                       # Clock period in ticks (Tick)
system.cpu.l1d.demandHits::cpu.data         222029263                       # number of demand (read+write) hits (Count)
system.cpu.l1d.demandHits::total            222029263                       # number of demand (read+write) hits (Count)
system.cpu.l1d.overallHits::cpu.data        222029263                       # number of overall hits (Count)
system.cpu.l1d.overallHits::total           222029263                       # number of overall hits (Count)
system.cpu.l1d.demandMisses::cpu.data         4916269                       # number of demand (read+write) misses (Count)
system.cpu.l1d.demandMisses::total            4916269                       # number of demand (read+write) misses (Count)
system.cpu.l1d.overallMisses::cpu.data        4916269                       # number of overall misses (Count)
system.cpu.l1d.overallMisses::total           4916269                       # number of overall misses (Count)
system.cpu.l1d.demandMissLatency::cpu.data 327865277000                       # number of demand (read+write) miss ticks (Tick)
system.cpu.l1d.demandMissLatency::total  327865277000                       # number of demand (read+write) miss ticks (Tick)
system.cpu.l1d.overallMissLatency::cpu.data 327865277000                       # number of overall miss ticks (Tick)
system.cpu.l1d.overallMissLatency::total 327865277000                       # number of overall miss ticks (Tick)
system.cpu.l1d.demandAccesses::cpu.data     226945532                       # number of demand (read+write) accesses (Count)
system.cpu.l1d.demandAccesses::total        226945532                       # number of demand (read+write) accesses (Count)
system.cpu.l1d.overallAccesses::cpu.data    226945532                       # number of overall (read+write) accesses (Count)
system.cpu.l1d.overallAccesses::total       226945532                       # number of overall (read+write) accesses (Count)
system.cpu.l1d.demandMissRate::cpu.data      0.021663                       # miss rate for demand accesses (Ratio)
system.cpu.l1d.demandMissRate::total         0.021663                       # miss rate for demand accesses (Ratio)
system.cpu.l1d.overallMissRate::cpu.data     0.021663                       # miss rate for overall accesses (Ratio)
system.cpu.l1d.overallMissRate::total        0.021663                       # miss rate for overall accesses (Ratio)
system.cpu.l1d.demandAvgMissLatency::cpu.data 66689.857085                       # average overall miss latency in ticks ((Tick/Count))
system.cpu.l1d.demandAvgMissLatency::total 66689.857085                       # average overall miss latency in ticks ((Tick/Count))
system.cpu.l1d.overallAvgMissLatency::cpu.data 66689.857085                       # average overall miss latency ((Tick/Count))
system.cpu.l1d.overallAvgMissLatency::total 66689.857085                       # average overall miss latency ((Tick/Count))
system.cpu.l1d.blockedCycles::no_mshrs              0                       # number of cycles access was blocked (Cycle)
system.cpu.l1d.blockedCycles::no_targets            0                       # number of cycles access was blocked (Cycle)
system.cpu.l1d.blockedCauses::no_mshrs              0                       # number of times access was blocked (Count)
system.cpu.l1d.blockedCauses::no_targets            0                       # number of times access was blocked (Count)
system.cpu.l1d.avgBlocked::no_mshrs               nan                       # average number of cycles each access was blocked ((Cycle/Count))
system.cpu.l1d.avgBlocked::no_targets             nan                       # average number of cycles each access was blocked ((Cycle/Count))
system.cpu.l1d.writebacks::writebacks           86740                       # number of writebacks (Count)
system.cpu.l1d.writebacks::total                86740                       # number of writebacks (Count)
system.cpu.l1d.demandMshrMisses::cpu.data      4916269                       # number of demand (read+write) MSHR misses (Count)
system.cpu.l1d.demandMshrMisses::total        4916269                       # number of demand (read+write) MSHR misses (Count)
system.cpu.l1d.overallMshrMisses::cpu.data      4916269                       # number of overall MSHR misses (Count)
system.cpu.l1d.overallMshrMisses::total       4916269                       # number of overall MSHR misses (Count)
system.cpu.l1d.demandMshrMissLatency::cpu.data 322949008000                       # number of demand (read+write) MSHR miss ticks (Tick)
system.cpu.l1d.demandMshrMissLatency::total 322949008000                       # number of demand (read+write) MSHR miss ticks (Tick)
system.cpu.l1d.overallMshrMissLatency::cpu.data 322949008000                       # number of overall MSHR miss ticks (Tick)
system.cpu.l1d.overallMshrMissLatency::total 322949008000                       # number of overall MSHR miss ticks (Tick)
system.cpu.l1d.demandMshrMissRate::cpu.data     0.021663                       # mshr miss ratio for demand accesses (Ratio)
system.cpu.l1d.demandMshrMissRate::total     0.021663                       # mshr miss ratio for demand accesses (Ratio)
system.cpu.l1d.overallMshrMissRate::cpu.data     0.021663                       # mshr miss ratio for overall accesses (Ratio)
system.cpu.l1d.overallMshrMissRate::total     0.021663                       # mshr miss ratio for overall accesses (Ratio)
system.cpu.l1d.demandAvgMshrMissLatency::cpu.data 65689.857085                       # average overall mshr miss latency ((Tick/Count))
system.cpu.l1d.demandAvgMshrMissLatency::total 65689.857085                       # average overall mshr miss latency ((Tick/Count))
system.cpu.l1d.overallAvgMshrMissLatency::cpu.data 65689.857085                       # average overall mshr miss latency ((Tick/Count))
system.cpu.l1d.overallAvgMshrMissLatency::total 65689.857085                       # average overall mshr miss latency ((Tick/Count))
system.cpu.l1d.replacements                   4916274                       # number of replacements (Count)
system.cpu.l1d.LockedRMWReadReq.hits::cpu.data          429                       # number of LockedRMWReadReq hits (Count)
system.cpu.l1d.LockedRMWReadReq.hits::total          429                       # number of LockedRMWReadReq hits (Count)
system.cpu.l1d.LockedRMWReadReq.misses::cpu.data           69                       # number of LockedRMWReadReq misses (Count)
system.cpu.l1d.LockedRMWReadReq.misses::total           69                       # number of LockedRMWReadReq misses (Count)
system.cpu.l1d.LockedRMWReadReq.missLatency::cpu.data      4242000                       # number of LockedRMWReadReq miss ticks (Tick)
system.cpu.l1d.LockedRMWReadReq.missLatency::total      4242000                       # number of LockedRMWReadReq miss ticks (Tick)
system.cpu.l1d.LockedRMWReadReq.accesses::cpu.data          498                       # number of LockedRMWReadReq accesses(hits+misses) (Count)
system.cpu.l1d.LockedRMWReadReq.accesses::total          498                       # number of LockedRMWReadReq accesses(hits+misses) (Count)
system.cpu.l1d.LockedRMWReadReq.missRate::cpu.data     0.138554                       # miss rate for LockedRMWReadReq accesses (Ratio)
system.cpu.l1d.LockedRMWReadReq.missRate::total     0.138554                       # miss rate for LockedRMWReadReq accesses (Ratio)
system.cpu.l1d.LockedRMWReadReq.avgMissLatency::cpu.data 61478.260870                       # average LockedRMWReadReq miss latency ((Tick/Count))
system.cpu.l1d.LockedRMWReadReq.avgMissLatency::total 61478.260870                       # average LockedRMWReadReq miss latency ((Tick/Count))
system.cpu.l1d.LockedRMWReadReq.mshrMisses::cpu.data           69                       # number of LockedRMWReadReq MSHR misses (Count)
system.cpu.l1d.LockedRMWReadReq.mshrMisses::total           69                       # number of LockedRMWReadReq MSHR misses (Count)
system.cpu.l1d.LockedRMWReadReq.mshrMissLatency::cpu.data      8844000                       # number of LockedRMWReadReq MSHR miss ticks (Tick)
system.cpu.l1d.LockedRMWReadReq.mshrMissLatency::total      8844000                       # number of LockedRMWReadReq MSHR miss ticks (Tick)
system.cpu.l1d.LockedRMWReadReq.mshrMissRate::cpu.data     0.138554                       # mshr miss rate for LockedRMWReadReq accesses (Ratio)
system.cpu.l1d.LockedRMWReadReq.mshrMissRate::total     0.138554                       # mshr miss rate for LockedRMWReadReq accesses (Ratio)
system.cpu.l1d.LockedRMWReadReq.avgMshrMissLatency::cpu.data 128173.913043                       # average LockedRMWReadReq mshr miss latency ((Tick/Count))
system.cpu.l1d.LockedRMWReadReq.avgMshrMissLatency::total 128173.913043                       # average LockedRMWReadReq mshr miss latency ((Tick/Count))
system.cpu.l1d.LockedRMWWriteReq.hits::cpu.data          498                       # number of LockedRMWWriteReq hits (Count)
system.cpu.l1d.LockedRMWWriteReq.hits::total          498                       # number of LockedRMWWriteReq hits (Count)
system.cpu.l1d.LockedRMWWriteReq.accesses::cpu.data          498                       # number of LockedRMWWriteReq accesses(hits+misses) (Count)
system.cpu.l1d.LockedRMWWriteReq.accesses::total          498                       # number of LockedRMWWriteReq accesses(hits+misses) (Count)
system.cpu.l1d.ReadReq.hits::cpu.data       146579334                       # number of ReadReq hits (Count)
system.cpu.l1d.ReadReq.hits::total          146579334                       # number of ReadReq hits (Count)
system.cpu.l1d.ReadReq.misses::cpu.data       4885706                       # number of ReadReq misses (Count)
system.cpu.l1d.ReadReq.misses::total          4885706                       # number of ReadReq misses (Count)
system.cpu.l1d.ReadReq.missLatency::cpu.data 326534309000                       # number of ReadReq miss ticks (Tick)
system.cpu.l1d.ReadReq.missLatency::total 326534309000                       # number of ReadReq miss ticks (Tick)
system.cpu.l1d.ReadReq.accesses::cpu.data    151465040                       # number of ReadReq accesses(hits+misses) (Count)
system.cpu.l1d.ReadReq.accesses::total      151465040                       # number of ReadReq accesses(hits+misses) (Count)
system.cpu.l1d.ReadReq.missRate::cpu.data     0.032256                       # miss rate for ReadReq accesses (Ratio)
system.cpu.l1d.ReadReq.missRate::total       0.032256                       # miss rate for ReadReq accesses (Ratio)
system.cpu.l1d.ReadReq.avgMissLatency::cpu.data 66834.621035                       # average ReadReq miss latency ((Tick/Count))
system.cpu.l1d.ReadReq.avgMissLatency::total 66834.621035                       # average ReadReq miss latency ((Tick/Count))
system.cpu.l1d.ReadReq.mshrMisses::cpu.data      4885706                       # number of ReadReq MSHR misses (Count)
system.cpu.l1d.ReadReq.mshrMisses::total      4885706                       # number of ReadReq MSHR misses (Count)
system.cpu.l1d.ReadReq.mshrMissLatency::cpu.data 321648603000                       # number of ReadReq MSHR miss ticks (Tick)
system.cpu.l1d.ReadReq.mshrMissLatency::total 321648603000                       # number of ReadReq MSHR miss ticks (Tick)
system.cpu.l1d.ReadReq.mshrMissRate::cpu.data     0.032256                       # mshr miss rate for ReadReq accesses (Ratio)
system.cpu.l1d.ReadReq.mshrMissRate::total     0.032256                       # mshr miss rate for ReadReq accesses (Ratio)
system.cpu.l1d.ReadReq.avgMshrMissLatency::cpu.data 65834.621035                       # average ReadReq mshr miss latency ((Tick/Count))
system.cpu.l1d.ReadReq.avgMshrMissLatency::total 65834.621035                       # average ReadReq mshr miss latency ((Tick/Count))
system.cpu.l1d.WriteReq.hits::cpu.data       75449929                       # number of WriteReq hits (Count)
system.cpu.l1d.WriteReq.hits::total          75449929                       # number of WriteReq hits (Count)
system.cpu.l1d.WriteReq.misses::cpu.data        30563                       # number of WriteReq misses (Count)
system.cpu.l1d.WriteReq.misses::total           30563                       # number of WriteReq misses (Count)
system.cpu.l1d.WriteReq.missLatency::cpu.data   1330968000                       # number of WriteReq miss ticks (Tick)
system.cpu.l1d.WriteReq.missLatency::total   1330968000                       # number of WriteReq miss ticks (Tick)
system.cpu.l1d.WriteReq.accesses::cpu.data     75480492                       # number of WriteReq accesses(hits+misses) (Count)
system.cpu.l1d.WriteReq.accesses::total      75480492                       # number of WriteReq accesses(hits+misses) (Count)
system.cpu.l1d.WriteReq.missRate::cpu.data     0.000405                       # miss rate for WriteReq accesses (Ratio)
system.cpu.l1d.WriteReq.missRate::total      0.000405                       # miss rate for WriteReq accesses (Ratio)
system.cpu.l1d.WriteReq.avgMissLatency::cpu.data 43548.342767                       # average WriteReq miss latency ((Tick/Count))
system.cpu.l1d.WriteReq.avgMissLatency::total 43548.342767                       # average WriteReq miss latency ((Tick/Count))
system.cpu.l1d.WriteReq.mshrMisses::cpu.data        30563                       # number of WriteReq MSHR misses (Count)
system.cpu.l1d.WriteReq.mshrMisses::total        30563                       # number of WriteReq MSHR misses (Count)
system.cpu.l1d.WriteReq.mshrMissLatency::cpu.data   1300405000                       # number of WriteReq MSHR miss ticks (Tick)
system.cpu.l1d.WriteReq.mshrMissLatency::total   1300405000                       # number of WriteReq MSHR miss ticks (Tick)
system.cpu.l1d.WriteReq.mshrMissRate::cpu.data     0.000405                       # mshr miss rate for WriteReq accesses (Ratio)
system.cpu.l1d.WriteReq.mshrMissRate::total     0.000405                       # mshr miss rate for WriteReq accesses (Ratio)
system.cpu.l1d.WriteReq.avgMshrMissLatency::cpu.data 42548.342767                       # average WriteReq mshr miss latency ((Tick/Count))
system.cpu.l1d.WriteReq.avgMshrMissLatency::total 42548.342767                       # average WriteReq mshr miss latency ((Tick/Count))
system.cpu.l1d.power_state.pwrStateResidencyTicks::UNDEFINED 1012371739000                       # Cumulative time (in ticks) in various power states (Tick)
system.cpu.l1d.tags.tagsInUse               63.999729                       # Average ticks per tags in use ((Tick/Count))
system.cpu.l1d.tags.totalRefs                98299790                       # Total number of references to valid blocks. (Count)
system.cpu.l1d.tags.sampledRefs               4916274                       # Sample count of references to valid blocks. (Count)
system.cpu.l1d.tags.avgRefs                 19.994774                       # Average number of references to valid blocks. ((Count/Count))
system.cpu.l1d.tags.warmupTick                 158000                       # The tick when the warmup percentage was hit. (Tick)
system.cpu.l1d.tags.occupancies::cpu.data    63.999729                       # Average occupied blocks per tick, per requestor ((Count/Tick))
system.cpu.l1d.tags.avgOccs::cpu.data        0.999996                       # Average percentage of cache occupancy ((Ratio/Tick))
system.cpu.l1d.tags.avgOccs::total           0.999996                       # Average percentage of cache occupancy ((Ratio/Tick))
system.cpu.l1d.tags.occupanciesTaskId::1024           64                       # Occupied blocks per task id (Count)
system.cpu.l1d.tags.ageTaskId_1024::0              41                       # Occupied blocks per task id, per block age (Count)
system.cpu.l1d.tags.ageTaskId_1024::1               8                       # Occupied blocks per task id, per block age (Count)
system.cpu.l1d.tags.ageTaskId_1024::2               1                       # Occupied blocks per task id, per block age (Count)
system.cpu.l1d.tags.ageTaskId_1024::4              14                       # Occupied blocks per task id, per block age (Count)
system.cpu.l1d.tags.ratioOccsTaskId::1024            1                       # Ratio of occupied blocks and all blocks, per task id (Ratio)
system.cpu.l1d.tags.tagAccesses             458809394                       # Number of tag accesses (Count)
system.cpu.l1d.tags.dataAccesses            458809394                       # Number of data accesses (Count)
system.cpu.l1d.tags.power_state.pwrStateResidencyTicks::UNDEFINED 1012371739000                       # Cumulative time (in ticks) in various power states (Tick)
system.cpu.l1i.demandHits::cpu.inst         458302537                       # number of demand (read+write) hits (Count)
system.cpu.l1i.demandHits::total            458302537                       # number of demand (read+write) hits (Count)
system.cpu.l1i.overallHits::cpu.inst        458302537                       # number of overall hits (Count)
system.cpu.l1i.overallHits::total           458302537                       # number of overall hits (Count)
system.cpu.l1i.demandMisses::cpu.inst           63412                       # number of demand (read+write) misses (Count)
system.cpu.l1i.demandMisses::total              63412                       # number of demand (read+write) misses (Count)
system.cpu.l1i.overallMisses::cpu.inst          63412                       # number of overall misses (Count)
system.cpu.l1i.overallMisses::total             63412                       # number of overall misses (Count)
system.cpu.l1i.demandMissLatency::cpu.inst   4094546000                       # number of demand (read+write) miss ticks (Tick)
system.cpu.l1i.demandMissLatency::total    4094546000                       # number of demand (read+write) miss ticks (Tick)
system.cpu.l1i.overallMissLatency::cpu.inst   4094546000                       # number of overall miss ticks (Tick)
system.cpu.l1i.overallMissLatency::total   4094546000                       # number of overall miss ticks (Tick)
system.cpu.l1i.demandAccesses::cpu.inst     458365949                       # number of demand (read+write) accesses (Count)
system.cpu.l1i.demandAccesses::total        458365949                       # number of demand (read+write) accesses (Count)
system.cpu.l1i.overallAccesses::cpu.inst    458365949                       # number of overall (read+write) accesses (Count)
system.cpu.l1i.overallAccesses::total       458365949                       # number of overall (read+write) accesses (Count)
system.cpu.l1i.demandMissRate::cpu.inst      0.000138                       # miss rate for demand accesses (Ratio)
system.cpu.l1i.demandMissRate::total         0.000138                       # miss rate for demand accesses (Ratio)
system.cpu.l1i.overallMissRate::cpu.inst     0.000138                       # miss rate for overall accesses (Ratio)
system.cpu.l1i.overallMissRate::total        0.000138                       # miss rate for overall accesses (Ratio)
system.cpu.l1i.demandAvgMissLatency::cpu.inst 64570.522929                       # average overall miss latency in ticks ((Tick/Count))
system.cpu.l1i.demandAvgMissLatency::total 64570.522929                       # average overall miss latency in ticks ((Tick/Count))
system.cpu.l1i.overallAvgMissLatency::cpu.inst 64570.522929                       # average overall miss latency ((Tick/Count))
system.cpu.l1i.overallAvgMissLatency::total 64570.522929                       # average overall miss latency ((Tick/Count))
system.cpu.l1i.blockedCycles::no_mshrs              0                       # number of cycles access was blocked (Cycle)
system.cpu.l1i.blockedCycles::no_targets            0                       # number of cycles access was blocked (Cycle)
system.cpu.l1i.blockedCauses::no_mshrs              0                       # number of times access was blocked (Count)
system.cpu.l1i.blockedCauses::no_targets            0                       # number of times access was blocked (Count)
system.cpu.l1i.avgBlocked::no_mshrs               nan                       # average number of cycles each access was blocked ((Cycle/Count))
system.cpu.l1i.avgBlocked::no_targets             nan                       # average number of cycles each access was blocked ((Cycle/Count))
system.cpu.l1i.demandMshrMisses::cpu.inst        63412                       # number of demand (read+write) MSHR misses (Count)
system.cpu.l1i.demandMshrMisses::total          63412                       # number of demand (read+write) MSHR misses (Count)
system.cpu.l1i.overallMshrMisses::cpu.inst        63412                       # number of overall MSHR misses (Count)
system.cpu.l1i.overallMshrMisses::total         63412                       # number of overall MSHR misses (Count)
system.cpu.l1i.demandMshrMissLatency::cpu.inst   4031134000                       # number of demand (read+write) MSHR miss ticks (Tick)
system.cpu.l1i.demandMshrMissLatency::total   4031134000                       # number of demand (read+write) MSHR miss ticks (Tick)
system.cpu.l1i.overallMshrMissLatency::cpu.inst   4031134000                       # number of overall MSHR miss ticks (Tick)
system.cpu.l1i.overallMshrMissLatency::total   4031134000                       # number of overall MSHR miss ticks (Tick)
system.cpu.l1i.demandMshrMissRate::cpu.inst     0.000138                       # mshr miss ratio for demand accesses (Ratio)
system.cpu.l1i.demandMshrMissRate::total     0.000138                       # mshr miss ratio for demand accesses (Ratio)
system.cpu.l1i.overallMshrMissRate::cpu.inst     0.000138                       # mshr miss ratio for overall accesses (Ratio)
system.cpu.l1i.overallMshrMissRate::total     0.000138                       # mshr miss ratio for overall accesses (Ratio)
system.cpu.l1i.demandAvgMshrMissLatency::cpu.inst 63570.522929                       # average overall mshr miss latency ((Tick/Count))
system.cpu.l1i.demandAvgMshrMissLatency::total 63570.522929                       # average overall mshr miss latency ((Tick/Count))
system.cpu.l1i.overallAvgMshrMissLatency::cpu.inst 63570.522929                       # average overall mshr miss latency ((Tick/Count))
system.cpu.l1i.overallAvgMshrMissLatency::total 63570.522929                       # average overall mshr miss latency ((Tick/Count))
system.cpu.l1i.replacements                     63348                       # number of replacements (Count)
system.cpu.l1i.ReadReq.hits::cpu.inst       458302537                       # number of ReadReq hits (Count)
system.cpu.l1i.ReadReq.hits::total          458302537                       # number of ReadReq hits (Count)
system.cpu.l1i.ReadReq.misses::cpu.inst         63412                       # number of ReadReq misses (Count)
system.cpu.l1i.ReadReq.misses::total            63412                       # number of ReadReq misses (Count)
system.cpu.l1i.ReadReq.missLatency::cpu.inst   4094546000                       # number of ReadReq miss ticks (Tick)
system.cpu.l1i.ReadReq.missLatency::total   4094546000                       # number of ReadReq miss ticks (Tick)
system.cpu.l1i.ReadReq.accesses::cpu.inst    458365949                       # number of ReadReq accesses(hits+misses) (Count)
system.cpu.l1i.ReadReq.accesses::total      458365949                       # number of ReadReq accesses(hits+misses) (Count)
system.cpu.l1i.ReadReq.missRate::cpu.inst     0.000138                       # miss rate for ReadReq accesses (Ratio)
system.cpu.l1i.ReadReq.missRate::total       0.000138                       # miss rate for ReadReq accesses (Ratio)
system.cpu.l1i.ReadReq.avgMissLatency::cpu.inst 64570.522929                       # average ReadReq miss latency ((Tick/Count))
system.cpu.l1i.ReadReq.avgMissLatency::total 64570.522929                       # average ReadReq miss latency ((Tick/Count))
system.cpu.l1i.ReadReq.mshrMisses::cpu.inst        63412                       # number of ReadReq MSHR misses (Count)
system.cpu.l1i.ReadReq.mshrMisses::total        63412                       # number of ReadReq MSHR misses (Count)
system.cpu.l1i.ReadReq.mshrMissLatency::cpu.inst   4031134000                       # number of ReadReq MSHR miss ticks (Tick)
system.cpu.l1i.ReadReq.mshrMissLatency::total   4031134000                       # number of ReadReq MSHR miss ticks (Tick)
system.cpu.l1i.ReadReq.mshrMissRate::cpu.inst     0.000138                       # mshr miss rate for ReadReq accesses (Ratio)
system.cpu.l1i.ReadReq.mshrMissRate::total     0.000138                       # mshr miss rate for ReadReq accesses (Ratio)
system.cpu.l1i.ReadReq.avgMshrMissLatency::cpu.inst 63570.522929                       # average ReadReq mshr miss latency ((Tick/Count))
system.cpu.l1i.ReadReq.avgMshrMissLatency::total 63570.522929                       # average ReadReq mshr miss latency ((Tick/Count))
system.cpu.l1i.power_state.pwrStateResidencyTicks::UNDEFINED 1012371739000                       # Cumulative time (in ticks) in various power states (Tick)
system.cpu.l1i.tags.tagsInUse               63.999252                       # Average ticks per tags in use ((Tick/Count))
system.cpu.l1i.tags.totalRefs                 8823168                       # Total number of references to valid blocks. (Count)
system.cpu.l1i.tags.sampledRefs                 63348                       # Sample count of references to valid blocks. (Count)
system.cpu.l1i.tags.avgRefs                139.280924                       # Average number of references to valid blocks. ((Count/Count))
system.cpu.l1i.tags.warmupTick                  79000                       # The tick when the warmup percentage was hit. (Tick)
system.cpu.l1i.tags.occupancies::cpu.inst    63.999252                       # Average occupied blocks per tick, per requestor ((Count/Tick))
system.cpu.l1i.tags.avgOccs::cpu.inst        0.999988                       # Average percentage of cache occupancy ((Ratio/Tick))
system.cpu.l1i.tags.avgOccs::total           0.999988                       # Average percentage of cache occupancy ((Ratio/Tick))
system.cpu.l1i.tags.occupanciesTaskId::1024           64                       # Occupied blocks per task id (Count)
system.cpu.l1i.tags.ageTaskId_1024::0               6                       # Occupied blocks per task id, per block age (Count)
system.cpu.l1i.tags.ageTaskId_1024::4              58                       # Occupied blocks per task id, per block age (Count)
system.cpu.l1i.tags.ratioOccsTaskId::1024            1                       # Ratio of occupied blocks and all blocks, per task id (Ratio)
system.cpu.l1i.tags.tagAccesses             916795310                       # Number of tag accesses (Count)
system.cpu.l1i.tags.dataAccesses            916795310                       # Number of data accesses (Count)
system.cpu.l1i.tags.power_state.pwrStateResidencyTicks::UNDEFINED 1012371739000                       # Cumulative time (in ticks) in various power states (Tick)
system.cpu.mmu.dtb.rdAccesses               151465794                       # TLB accesses on read requests (Count)
system.cpu.mmu.dtb.wrAccesses                75481215                       # TLB accesses on write requests (Count)
system.cpu.mmu.dtb.rdMisses                      1759                       # TLB misses on read requests (Count)
system.cpu.mmu.dtb.wrMisses                       494                       # TLB misses on write requests (Count)
system.cpu.mmu.dtb.walker.power_state.pwrStateResidencyTicks::UNDEFINED 1012371739000                       # Cumulative time (in ticks) in various power states (Tick)
system.cpu.mmu.itb.rdAccesses                       0                       # TLB accesses on read requests (Count)
system.cpu.mmu.itb.wrAccesses               458366062                       # TLB accesses on write requests (Count)
system.cpu.mmu.itb.rdMisses                         0                       # TLB misses on read requests (Count)
system.cpu.mmu.itb.wrMisses                       466                       # TLB misses on write requests (Count)
system.cpu.mmu.itb.walker.power_state.pwrStateResidencyTicks::UNDEFINED 1012371739000                       # Cumulative time (in ticks) in various power states (Tick)
system.cpu.power_state.pwrStateResidencyTicks::ON 1012371739000                       # Cumulative time (in ticks) in various power states (Tick)
system.cpu.thread_0.numInsts                        0                       # Number of Instructions committed (Count)
system.cpu.thread_0.numOps                          0                       # Number of Ops committed (Count)
system.cpu.thread_0.numMemRefs                      0                       # Number of Memory References (Count)
system.cpu.workload.numSyscalls                  7540                       # Number of system calls (Count)
system.l2_bus.transDist::ReadResp             4949118                       # Transaction distribution (Count)
system.l2_bus.transDist::WritebackDirty        143099                       # Transaction distribution (Count)
system.l2_bus.transDist::CleanEvict           9769822                       # Transaction distribution (Count)
system.l2_bus.transDist::ReadExReq              30632                       # Transaction distribution (Count)
system.l2_bus.transDist::ReadExResp             30632                       # Transaction distribution (Count)
system.l2_bus.transDist::ReadSharedReq        4949118                       # Transaction distribution (Count)
system.l2_bus.pktCount_system.cpu.l1d.mem_side_port::system.l2_cache.cpu_side_port     14748950                       # Packet count per connected requestor and responder (Count)
system.l2_bus.pktCount_system.cpu.l1i.mem_side_port::system.l2_cache.cpu_side_port       190172                       # Packet count per connected requestor and responder (Count)
system.l2_bus.pktCount::total                14939122                       # Packet count per connected requestor and responder (Count)
system.l2_bus.pktSize_system.cpu.l1d.mem_side_port::system.l2_cache.cpu_side_port    320196992                       # Cumulative packet size per connected requestor and responder (Byte)
system.l2_bus.pktSize_system.cpu.l1i.mem_side_port::system.l2_cache.cpu_side_port      4058368                       # Cumulative packet size per connected requestor and responder (Byte)
system.l2_bus.pktSize::total                324255360                       # Cumulative packet size per connected requestor and responder (Byte)
system.l2_bus.snoops                          4933299                       # Total snoops (Count)
system.l2_bus.snoopTraffic                    3606976                       # Total snoop traffic (Byte)
system.l2_bus.snoopFanout::samples            9913049                       # Request fanout histogram (Count)
system.l2_bus.snoopFanout::mean              0.005359                       # Request fanout histogram (Count)
system.l2_bus.snoopFanout::stdev             0.073009                       # Request fanout histogram (Count)
system.l2_bus.snoopFanout::underflows               0      0.00%      0.00% # Request fanout histogram (Count)
system.l2_bus.snoopFanout::0                  9859924     99.46%     99.46% # Request fanout histogram (Count)
system.l2_bus.snoopFanout::1                    53125      0.54%    100.00% # Request fanout histogram (Count)
system.l2_bus.snoopFanout::2                        0      0.00%    100.00% # Request fanout histogram (Count)
system.l2_bus.snoopFanout::overflows                0      0.00%    100.00% # Request fanout histogram (Count)
system.l2_bus.snoopFanout::min_value                0                       # Request fanout histogram (Count)
system.l2_bus.snoopFanout::max_value                1                       # Request fanout histogram (Count)
system.l2_bus.snoopFanout::total              9913049                       # Request fanout histogram (Count)
system.l2_bus.power_state.pwrStateResidencyTicks::UNDEFINED 1012371739000                       # Cumulative time (in ticks) in various power states (Tick)
system.l2_bus.reqLayer0.occupancy         10132852000                       # Layer occupancy (ticks) (Tick)
system.l2_bus.reqLayer0.utilization               0.0                       # Layer utilization (Ratio)
system.l2_bus.respLayer0.occupancy        14749014000                       # Layer occupancy (ticks) (Tick)
system.l2_bus.respLayer0.utilization              0.0                       # Layer utilization (Ratio)
system.l2_bus.respLayer1.occupancy          190236000                       # Layer occupancy (ticks) (Tick)
system.l2_bus.respLayer1.utilization              0.0                       # Layer utilization (Ratio)
system.l2_bus.snoop_filter.totRequests        9959372                       # Total number of requests made to the snoop filter. (Count)
system.l2_bus.snoop_filter.hitSingleRequests      4979622                       # Number of requests hitting in the snoop filter with a single holder of the requested data. (Count)
system.l2_bus.snoop_filter.hitMultiRequests            0                       # Number of requests hitting in the snoop filter with multiple (>1) holders of the requested data. (Count)
system.l2_bus.snoop_filter.totSnoops            53125                       # Total number of snoops made to the snoop filter. (Count)
system.l2_bus.snoop_filter.hitSingleSnoops        53125                       # Number of snoops hitting in the snoop filter with a single holder of the requested data. (Count)
system.l2_bus.snoop_filter.hitMultiSnoops            0                       # Number of snoops hitting in the snoop filter with multiple (>1) holders of the requested data. (Count)
system.l2_cache.demandHits::cpu.inst            15244                       # number of demand (read+write) hits (Count)
system.l2_cache.demandHits::cpu.data            53166                       # number of demand (read+write) hits (Count)
system.l2_cache.demandHits::total               68410                       # number of demand (read+write) hits (Count)
system.l2_cache.overallHits::cpu.inst           15244                       # number of overall hits (Count)
system.l2_cache.overallHits::cpu.data           53166                       # number of overall hits (Count)
system.l2_cache.overallHits::total              68410                       # number of overall hits (Count)
system.l2_cache.demandMisses::cpu.inst          48168                       # number of demand (read+write) misses (Count)
system.l2_cache.demandMisses::cpu.data        4863172                       # number of demand (read+write) misses (Count)
system.l2_cache.demandMisses::total           4911340                       # number of demand (read+write) misses (Count)
system.l2_cache.overallMisses::cpu.inst         48168                       # number of overall misses (Count)
system.l2_cache.overallMisses::cpu.data       4863172                       # number of overall misses (Count)
system.l2_cache.overallMisses::total          4911340                       # number of overall misses (Count)
system.l2_cache.demandMissLatency::cpu.inst   3766596000                       # number of demand (read+write) miss ticks (Tick)
system.l2_cache.demandMissLatency::cpu.data 312641046000                       # number of demand (read+write) miss ticks (Tick)
system.l2_cache.demandMissLatency::total 316407642000                       # number of demand (read+write) miss ticks (Tick)
system.l2_cache.overallMissLatency::cpu.inst   3766596000                       # number of overall miss ticks (Tick)
system.l2_cache.overallMissLatency::cpu.data 312641046000                       # number of overall miss ticks (Tick)
system.l2_cache.overallMissLatency::total 316407642000                       # number of overall miss ticks (Tick)
system.l2_cache.demandAccesses::cpu.inst        63412                       # number of demand (read+write) accesses (Count)
system.l2_cache.demandAccesses::cpu.data      4916338                       # number of demand (read+write) accesses (Count)
system.l2_cache.demandAccesses::total         4979750                       # number of demand (read+write) accesses (Count)
system.l2_cache.overallAccesses::cpu.inst        63412                       # number of overall (read+write) accesses (Count)
system.l2_cache.overallAccesses::cpu.data      4916338                       # number of overall (read+write) accesses (Count)
system.l2_cache.overallAccesses::total        4979750                       # number of overall (read+write) accesses (Count)
system.l2_cache.demandMissRate::cpu.inst     0.759604                       # miss rate for demand accesses (Ratio)
system.l2_cache.demandMissRate::cpu.data     0.989186                       # miss rate for demand accesses (Ratio)
system.l2_cache.demandMissRate::total        0.986262                       # miss rate for demand accesses (Ratio)
system.l2_cache.overallMissRate::cpu.inst     0.759604                       # miss rate for overall accesses (Ratio)
system.l2_cache.overallMissRate::cpu.data     0.989186                       # miss rate for overall accesses (Ratio)
system.l2_cache.overallMissRate::total       0.986262                       # miss rate for overall accesses (Ratio)
system.l2_cache.demandAvgMissLatency::cpu.inst 78197.060289                       # average overall miss latency in ticks ((Tick/Count))
system.l2_cache.demandAvgMissLatency::cpu.data 64287.474513                       # average overall miss latency in ticks ((Tick/Count))
system.l2_cache.demandAvgMissLatency::total 64423.892868                       # average overall miss latency in ticks ((Tick/Count))
system.l2_cache.overallAvgMissLatency::cpu.inst 78197.060289                       # average overall miss latency ((Tick/Count))
system.l2_cache.overallAvgMissLatency::cpu.data 64287.474513                       # average overall miss latency ((Tick/Count))
system.l2_cache.overallAvgMissLatency::total 64423.892868                       # average overall miss latency ((Tick/Count))
system.l2_cache.blockedCycles::no_mshrs             0                       # number of cycles access was blocked (Cycle)
system.l2_cache.blockedCycles::no_targets            0                       # number of cycles access was blocked (Cycle)
system.l2_cache.blockedCauses::no_mshrs             0                       # number of times access was blocked (Count)
system.l2_cache.blockedCauses::no_targets            0                       # number of times access was blocked (Count)
system.l2_cache.avgBlocked::no_mshrs              nan                       # average number of cycles each access was blocked ((Cycle/Count))
system.l2_cache.avgBlocked::no_targets            nan                       # average number of cycles each access was blocked ((Cycle/Count))
system.l2_cache.writebacks::writebacks          56359                       # number of writebacks (Count)
system.l2_cache.writebacks::total               56359                       # number of writebacks (Count)
system.l2_cache.demandMshrMisses::cpu.inst        48168                       # number of demand (read+write) MSHR misses (Count)
system.l2_cache.demandMshrMisses::cpu.data      4863172                       # number of demand (read+write) MSHR misses (Count)
system.l2_cache.demandMshrMisses::total       4911340                       # number of demand (read+write) MSHR misses (Count)
system.l2_cache.overallMshrMisses::cpu.inst        48168                       # number of overall MSHR misses (Count)
system.l2_cache.overallMshrMisses::cpu.data      4863172                       # number of overall MSHR misses (Count)
system.l2_cache.overallMshrMisses::total      4911340                       # number of overall MSHR misses (Count)
system.l2_cache.demandMshrMissLatency::cpu.inst   3718428000                       # number of demand (read+write) MSHR miss ticks (Tick)
system.l2_cache.demandMshrMissLatency::cpu.data 307777874000                       # number of demand (read+write) MSHR miss ticks (Tick)
system.l2_cache.demandMshrMissLatency::total 311496302000                       # number of demand (read+write) MSHR miss ticks (Tick)
system.l2_cache.overallMshrMissLatency::cpu.inst   3718428000                       # number of overall MSHR miss ticks (Tick)
system.l2_cache.overallMshrMissLatency::cpu.data 307777874000                       # number of overall MSHR miss ticks (Tick)
system.l2_cache.overallMshrMissLatency::total 311496302000                       # number of overall MSHR miss ticks (Tick)
system.l2_cache.demandMshrMissRate::cpu.inst     0.759604                       # mshr miss ratio for demand accesses (Ratio)
system.l2_cache.demandMshrMissRate::cpu.data     0.989186                       # mshr miss ratio for demand accesses (Ratio)
system.l2_cache.demandMshrMissRate::total     0.986262                       # mshr miss ratio for demand accesses (Ratio)
system.l2_cache.overallMshrMissRate::cpu.inst     0.759604                       # mshr miss ratio for overall accesses (Ratio)
system.l2_cache.overallMshrMissRate::cpu.data     0.989186                       # mshr miss ratio for overall accesses (Ratio)
system.l2_cache.overallMshrMissRate::total     0.986262                       # mshr miss ratio for overall accesses (Ratio)
system.l2_cache.demandAvgMshrMissLatency::cpu.inst 77197.060289                       # average overall mshr miss latency ((Tick/Count))
system.l2_cache.demandAvgMshrMissLatency::cpu.data 63287.474513                       # average overall mshr miss latency ((Tick/Count))
system.l2_cache.demandAvgMshrMissLatency::total 63423.892868                       # average overall mshr miss latency ((Tick/Count))
system.l2_cache.overallAvgMshrMissLatency::cpu.inst 77197.060289                       # average overall mshr miss latency ((Tick/Count))
system.l2_cache.overallAvgMshrMissLatency::cpu.data 63287.474513                       # average overall mshr miss latency ((Tick/Count))
system.l2_cache.overallAvgMshrMissLatency::total 63423.892868                       # average overall mshr miss latency ((Tick/Count))
system.l2_cache.replacements                  4933299                       # number of replacements (Count)
system.l2_cache.CleanEvict.mshrMisses::writebacks        30581                       # number of CleanEvict MSHR misses (Count)
system.l2_cache.CleanEvict.mshrMisses::total        30581                       # number of CleanEvict MSHR misses (Count)
system.l2_cache.CleanEvict.mshrMissRate::writebacks          inf                       # mshr miss rate for CleanEvict accesses (Ratio)
system.l2_cache.CleanEvict.mshrMissRate::total          inf                       # mshr miss rate for CleanEvict accesses (Ratio)
system.l2_cache.ReadExReq.hits::cpu.data         4595                       # number of ReadExReq hits (Count)
system.l2_cache.ReadExReq.hits::total            4595                       # number of ReadExReq hits (Count)
system.l2_cache.ReadExReq.misses::cpu.data        26037                       # number of ReadExReq misses (Count)
system.l2_cache.ReadExReq.misses::total         26037                       # number of ReadExReq misses (Count)
system.l2_cache.ReadExReq.missLatency::cpu.data   1201691000                       # number of ReadExReq miss ticks (Tick)
system.l2_cache.ReadExReq.missLatency::total   1201691000                       # number of ReadExReq miss ticks (Tick)
system.l2_cache.ReadExReq.accesses::cpu.data        30632                       # number of ReadExReq accesses(hits+misses) (Count)
system.l2_cache.ReadExReq.accesses::total        30632                       # number of ReadExReq accesses(hits+misses) (Count)
system.l2_cache.ReadExReq.missRate::cpu.data     0.849993                       # miss rate for ReadExReq accesses (Ratio)
system.l2_cache.ReadExReq.missRate::total     0.849993                       # miss rate for ReadExReq accesses (Ratio)
system.l2_cache.ReadExReq.avgMissLatency::cpu.data 46153.205054                       # average ReadExReq miss latency ((Tick/Count))
system.l2_cache.ReadExReq.avgMissLatency::total 46153.205054                       # average ReadExReq miss latency ((Tick/Count))
system.l2_cache.ReadExReq.mshrMisses::cpu.data        26037                       # number of ReadExReq MSHR misses (Count)
system.l2_cache.ReadExReq.mshrMisses::total        26037                       # number of ReadExReq MSHR misses (Count)
system.l2_cache.ReadExReq.mshrMissLatency::cpu.data   1175654000                       # number of ReadExReq MSHR miss ticks (Tick)
system.l2_cache.ReadExReq.mshrMissLatency::total   1175654000                       # number of ReadExReq MSHR miss ticks (Tick)
system.l2_cache.ReadExReq.mshrMissRate::cpu.data     0.849993                       # mshr miss rate for ReadExReq accesses (Ratio)
system.l2_cache.ReadExReq.mshrMissRate::total     0.849993                       # mshr miss rate for ReadExReq accesses (Ratio)
system.l2_cache.ReadExReq.avgMshrMissLatency::cpu.data 45153.205054                       # average ReadExReq mshr miss latency ((Tick/Count))
system.l2_cache.ReadExReq.avgMshrMissLatency::total 45153.205054                       # average ReadExReq mshr miss latency ((Tick/Count))
system.l2_cache.ReadSharedReq.hits::cpu.inst        15244                       # number of ReadSharedReq hits (Count)
system.l2_cache.ReadSharedReq.hits::cpu.data        48571                       # number of ReadSharedReq hits (Count)
system.l2_cache.ReadSharedReq.hits::total        63815                       # number of ReadSharedReq hits (Count)
system.l2_cache.ReadSharedReq.misses::cpu.inst        48168                       # number of ReadSharedReq misses (Count)
system.l2_cache.ReadSharedReq.misses::cpu.data      4837135                       # number of ReadSharedReq misses (Count)
system.l2_cache.ReadSharedReq.misses::total      4885303                       # number of ReadSharedReq misses (Count)
system.l2_cache.ReadSharedReq.missLatency::cpu.inst   3766596000                       # number of ReadSharedReq miss ticks (Tick)
system.l2_cache.ReadSharedReq.missLatency::cpu.data 311439355000                       # number of ReadSharedReq miss ticks (Tick)
system.l2_cache.ReadSharedReq.missLatency::total 315205951000                       # number of ReadSharedReq miss ticks (Tick)
system.l2_cache.ReadSharedReq.accesses::cpu.inst        63412                       # number of ReadSharedReq accesses(hits+misses) (Count)
system.l2_cache.ReadSharedReq.accesses::cpu.data      4885706                       # number of ReadSharedReq accesses(hits+misses) (Count)
system.l2_cache.ReadSharedReq.accesses::total      4949118                       # number of ReadSharedReq accesses(hits+misses) (Count)
system.l2_cache.ReadSharedReq.missRate::cpu.inst     0.759604                       # miss rate for ReadSharedReq accesses (Ratio)
system.l2_cache.ReadSharedReq.missRate::cpu.data     0.990059                       # miss rate for ReadSharedReq accesses (Ratio)
system.l2_cache.ReadSharedReq.missRate::total     0.987106                       # miss rate for ReadSharedReq accesses (Ratio)
system.l2_cache.ReadSharedReq.avgMissLatency::cpu.inst 78197.060289                       # average ReadSharedReq miss latency ((Tick/Count))
system.l2_cache.ReadSharedReq.avgMissLatency::cpu.data 64385.086420                       # average ReadSharedReq miss latency ((Tick/Count))
system.l2_cache.ReadSharedReq.avgMissLatency::total 64521.269407                       # average ReadSharedReq miss latency ((Tick/Count))
system.l2_cache.ReadSharedReq.mshrMisses::cpu.inst        48168                       # number of ReadSharedReq MSHR misses (Count)
system.l2_cache.ReadSharedReq.mshrMisses::cpu.data      4837135                       # number of ReadSharedReq MSHR misses (Count)
system.l2_cache.ReadSharedReq.mshrMisses::total      4885303                       # number of ReadSharedReq MSHR misses (Count)
system.l2_cache.ReadSharedReq.mshrMissLatency::cpu.inst   3718428000                       # number of ReadSharedReq MSHR miss ticks (Tick)
system.l2_cache.ReadSharedReq.mshrMissLatency::cpu.data 306602220000                       # number of ReadSharedReq MSHR miss ticks (Tick)
system.l2_cache.ReadSharedReq.mshrMissLatency::total 310320648000                       # number of ReadSharedReq MSHR miss ticks (Tick)
system.l2_cache.ReadSharedReq.mshrMissRate::cpu.inst     0.759604                       # mshr miss rate for ReadSharedReq accesses (Ratio)
system.l2_cache.ReadSharedReq.mshrMissRate::cpu.data     0.990059                       # mshr miss rate for ReadSharedReq accesses (Ratio)
system.l2_cache.ReadSharedReq.mshrMissRate::total     0.987106                       # mshr miss rate for ReadSharedReq accesses (Ratio)
system.l2_cache.ReadSharedReq.avgMshrMissLatency::cpu.inst 77197.060289                       # average ReadSharedReq mshr miss latency ((Tick/Count))
system.l2_cache.ReadSharedReq.avgMshrMissLatency::cpu.data 63385.086420                       # average ReadSharedReq mshr miss latency ((Tick/Count))
system.l2_cache.ReadSharedReq.avgMshrMissLatency::total 63521.269407                       # average ReadSharedReq mshr miss latency ((Tick/Count))
system.l2_cache.WritebackDirty.hits::writebacks        86740                       # number of WritebackDirty hits (Count)
system.l2_cache.WritebackDirty.hits::total        86740                       # number of WritebackDirty hits (Count)
system.l2_cache.WritebackDirty.accesses::writebacks        86740                       # number of WritebackDirty accesses(hits+misses) (Count)
system.l2_cache.WritebackDirty.accesses::total        86740                       # number of WritebackDirty accesses(hits+misses) (Count)
system.l2_cache.power_state.pwrStateResidencyTicks::UNDEFINED 1012371739000                       # Cumulative time (in ticks) in various power states (Tick)
system.l2_cache.tags.tagsInUse             511.987648                       # Average ticks per tags in use ((Tick/Count))
system.l2_cache.tags.totalRefs                9927822                       # Total number of references to valid blocks. (Count)
system.l2_cache.tags.sampledRefs              4933299                       # Sample count of references to valid blocks. (Count)
system.l2_cache.tags.avgRefs                 2.012410                       # Average number of references to valid blocks. ((Count/Count))
system.l2_cache.tags.warmupTick                 77000                       # The tick when the warmup percentage was hit. (Tick)
system.l2_cache.tags.occupancies::writebacks     1.837997                       # Average occupied blocks per tick, per requestor ((Count/Tick))
system.l2_cache.tags.occupancies::cpu.inst     4.356016                       # Average occupied blocks per tick, per requestor ((Count/Tick))
system.l2_cache.tags.occupancies::cpu.data   505.793635                       # Average occupied blocks per tick, per requestor ((Count/Tick))
system.l2_cache.tags.avgOccs::writebacks     0.003590                       # Average percentage of cache occupancy ((Ratio/Tick))
system.l2_cache.tags.avgOccs::cpu.inst       0.008508                       # Average percentage of cache occupancy ((Ratio/Tick))
system.l2_cache.tags.avgOccs::cpu.data       0.987878                       # Average percentage of cache occupancy ((Ratio/Tick))
system.l2_cache.tags.avgOccs::total          0.999976                       # Average percentage of cache occupancy ((Ratio/Tick))
system.l2_cache.tags.occupanciesTaskId::1024          512                       # Occupied blocks per task id (Count)
system.l2_cache.tags.ageTaskId_1024::0             66                       # Occupied blocks per task id, per block age (Count)
system.l2_cache.tags.ageTaskId_1024::1            416                       # Occupied blocks per task id, per block age (Count)
system.l2_cache.tags.ageTaskId_1024::2             30                       # Occupied blocks per task id, per block age (Count)
system.l2_cache.tags.ratioOccsTaskId::1024            1                       # Ratio of occupied blocks and all blocks, per task id (Ratio)
system.l2_cache.tags.tagAccesses             84608787                       # Number of tag accesses (Count)
system.l2_cache.tags.dataAccesses            84608787                       # Number of data accesses (Count)
system.l2_cache.tags.power_state.pwrStateResidencyTicks::UNDEFINED 1012371739000                       # Cumulative time (in ticks) in various power states (Tick)
system.mem_ctrl.avgPriority_writebacks::samples     11706.00                       # Average QoS priority value for accepted requests (Count)
system.mem_ctrl.avgPriority_cpu.inst::samples     48168.00                       # Average QoS priority value for accepted requests (Count)
system.mem_ctrl.avgPriority_cpu.data::samples   4818389.00                       # Average QoS priority value for accepted requests (Count)
system.mem_ctrl.priorityMinLatency       0.000000018750                       # per QoS priority minimum request to response latency (Second)
system.mem_ctrl.priorityMaxLatency       0.001529786500                       # per QoS priority maximum request to response latency (Second)
system.mem_ctrl.numReadWriteTurnArounds           694                       # Number of turnarounds from READ to WRITE (Count)
system.mem_ctrl.numWriteReadTurnArounds           694                       # Number of turnarounds from WRITE to READ (Count)
system.mem_ctrl.numStayReadState             10049066                       # Number of times bus staying in READ state (Count)
system.mem_ctrl.numStayWriteState               11009                       # Number of times bus staying in WRITE state (Count)
system.mem_ctrl.readReqs                      4911340                       # Number of read requests accepted (Count)
system.mem_ctrl.writeReqs                       56359                       # Number of write requests accepted (Count)
system.mem_ctrl.readBursts                    4911340                       # Number of controller read bursts, including those serviced by the write queue (Count)
system.mem_ctrl.writeBursts                     56359                       # Number of controller write bursts, including those merged in the write queue (Count)
system.mem_ctrl.servicedByWrQ                   44783                       # Number of controller read bursts serviced by the write queue (Count)
system.mem_ctrl.mergedWrBursts                  44653                       # Number of controller write bursts merged with an existing one (Count)
system.mem_ctrl.neitherReadNorWriteReqs             0                       # Number of requests that are neither read nor write (Count)
system.mem_ctrl.avgRdQLen                        1.00                       # Average read queue length when enqueuing ((Count/Tick))
system.mem_ctrl.avgWrQLen                       24.00                       # Average write queue length when enqueuing ((Count/Tick))
system.mem_ctrl.numRdRetry                          0                       # Number of times read queue was full causing retry (Count)
system.mem_ctrl.numWrRetry                          0                       # Number of times write queue was full causing retry (Count)
system.mem_ctrl.readPktSize::0                      0                       # Read request sizes (log2) (Count)
system.mem_ctrl.readPktSize::1                      0                       # Read request sizes (log2) (Count)
system.mem_ctrl.readPktSize::2                      0                       # Read request sizes (log2) (Count)
system.mem_ctrl.readPktSize::3                      0                       # Read request sizes (log2) (Count)
system.mem_ctrl.readPktSize::4                      0                       # Read request sizes (log2) (Count)
system.mem_ctrl.readPktSize::5                      0                       # Read request sizes (log2) (Count)
system.mem_ctrl.readPktSize::6                4911340                       # Read request sizes (log2) (Count)
system.mem_ctrl.writePktSize::0                     0                       # Write request sizes (log2) (Count)
system.mem_ctrl.writePktSize::1                     0                       # Write request sizes (log2) (Count)
system.mem_ctrl.writePktSize::2                     0                       # Write request sizes (log2) (Count)
system.mem_ctrl.writePktSize::3                     0                       # Write request sizes (log2) (Count)
system.mem_ctrl.writePktSize::4                     0                       # Write request sizes (log2) (Count)
system.mem_ctrl.writePktSize::5                     0                       # Write request sizes (log2) (Count)
system.mem_ctrl.writePktSize::6                 56359                       # Write request sizes (log2) (Count)
system.mem_ctrl.rdQLenPdf::0                  4866555                       # What read queue length does an incoming req see (Count)
system.mem_ctrl.rdQLenPdf::1                        2                       # What read queue length does an incoming req see (Count)
system.mem_ctrl.rdQLenPdf::2                        0                       # What read queue length does an incoming req see (Count)
system.mem_ctrl.rdQLenPdf::3                        0                       # What read queue length does an incoming req see (Count)
system.mem_ctrl.rdQLenPdf::4                        0                       # What read queue length does an incoming req see (Count)
system.mem_ctrl.rdQLenPdf::5                        0                       # What read queue length does an incoming req see (Count)
system.mem_ctrl.rdQLenPdf::6                        0                       # What read queue length does an incoming req see (Count)
system.mem_ctrl.rdQLenPdf::7                        0                       # What read queue length does an incoming req see (Count)
system.mem_ctrl.rdQLenPdf::8                        0                       # What read queue length does an incoming req see (Count)
system.mem_ctrl.rdQLenPdf::9                        0                       # What read queue length does an incoming req see (Count)
system.mem_ctrl.rdQLenPdf::10                       0                       # What read queue length does an incoming req see (Count)
system.mem_ctrl.rdQLenPdf::11                       0                       # What read queue length does an incoming req see (Count)
system.mem_ctrl.rdQLenPdf::12                       0                       # What read queue length does an incoming req see (Count)
system.mem_ctrl.rdQLenPdf::13                       0                       # What read queue length does an incoming req see (Count)
system.mem_ctrl.rdQLenPdf::14                       0                       # What read queue length does an incoming req see (Count)
system.mem_ctrl.rdQLenPdf::15                       0                       # What read queue length does an incoming req see (Count)
system.mem_ctrl.rdQLenPdf::16                       0                       # What read queue length does an incoming req see (Count)
system.mem_ctrl.rdQLenPdf::17                       0                       # What read queue length does an incoming req see (Count)
system.mem_ctrl.rdQLenPdf::18                       0                       # What read queue length does an incoming req see (Count)
system.mem_ctrl.rdQLenPdf::19                       0                       # What read queue length does an incoming req see (Count)
system.mem_ctrl.rdQLenPdf::20                       0                       # What read queue length does an incoming req see (Count)
system.mem_ctrl.rdQLenPdf::21                       0                       # What read queue length does an incoming req see (Count)
system.mem_ctrl.rdQLenPdf::22                       0                       # What read queue length does an incoming req see (Count)
system.mem_ctrl.rdQLenPdf::23                       0                       # What read queue length does an incoming req see (Count)
system.mem_ctrl.rdQLenPdf::24                       0                       # What read queue length does an incoming req see (Count)
system.mem_ctrl.rdQLenPdf::25                       0                       # What read queue length does an incoming req see (Count)
system.mem_ctrl.rdQLenPdf::26                       0                       # What read queue length does an incoming req see (Count)
system.mem_ctrl.rdQLenPdf::27                       0                       # What read queue length does an incoming req see (Count)
system.mem_ctrl.rdQLenPdf::28                       0                       # What read queue length does an incoming req see (Count)
system.mem_ctrl.rdQLenPdf::29                       0                       # What read queue length does an incoming req see (Count)
system.mem_ctrl.rdQLenPdf::30                       0                       # What read queue length does an incoming req see (Count)
[...]
system.mem_ctrl.dram.bytesWritten::total        10368                       # Number of bytes written to this memory (Byte)
system.mem_ctrl.dram.numReads::cpu.inst           829                       # Number of read requests responded to by this memory (Count)
system.mem_ctrl.dram.numReads::cpu.data           852                       # Number of read requests responded to by this memory (Count)
system.mem_ctrl.dram.numReads::total             1681                       # Number of read requests responded to by this memory (Count)
system.mem_ctrl.dram.numWrites::writebacks          162                       # Number of write requests responded to by this memory (Count)
system.mem_ctrl.dram.numWrites::total             162                       # Number of write requests responded to by this memory (Count)
system.mem_ctrl.dram.bwRead::cpu.inst       243309181                       # Total read bandwidth from this memory ((Byte/Second))
system.mem_ctrl.dram.bwRead::cpu.data       250059617                       # Total read bandwidth from this memory ((Byte/Second))
system.mem_ctrl.dram.bwRead::total          493368798                       # Total read bandwidth from this memory ((Byte/Second))
system.mem_ctrl.dram.bwInstRead::cpu.inst    243309181                       # Instruction read bandwidth from this memory ((Byte/Second))
system.mem_ctrl.dram.bwInstRead::total      243309181                       # Instruction read bandwidth from this memory ((Byte/Second))
system.mem_ctrl.dram.bwWrite::writebacks     47546547                       # Write bandwidth from this memory ((Byte/Second))
system.mem_ctrl.dram.bwWrite::total          47546547                       # Write bandwidth from this memory ((Byte/Second))
system.mem_ctrl.dram.bwTotal::writebacks     47546547                       # Total bandwidth to/from this memory ((Byte/Second))
system.mem_ctrl.dram.bwTotal::cpu.inst      243309181                       # Total bandwidth to/from this memory ((Byte/Second))
system.mem_ctrl.dram.bwTotal::cpu.data      250059617                       # Total bandwidth to/from this memory ((Byte/Second))
system.mem_ctrl.dram.bwTotal::total         540915344                       # Total bandwidth to/from this memory ((Byte/Second))
system.mem_ctrl.dram.readBursts                  1665                       # Number of DRAM read bursts (Count)
system.mem_ctrl.dram.writeBursts                  162                       # Number of DRAM write bursts (Count)
system.mem_ctrl.dram.perBankRdBursts::0           180                       # Per bank write bursts (Count)
system.mem_ctrl.dram.perBankRdBursts::1           111                       # Per bank write bursts (Count)
system.mem_ctrl.dram.perBankRdBursts::2            90                       # Per bank write bursts (Count)
system.mem_ctrl.dram.perBankRdBursts::3            91                       # Per bank write bursts (Count)
system.mem_ctrl.dram.perBankRdBursts::4           150                       # Per bank write bursts (Count)
system.mem_ctrl.dram.perBankRdBursts::5           153                       # Per bank write bursts (Count)
system.mem_ctrl.dram.perBankRdBursts::6           110                       # Per bank write bursts (Count)
system.mem_ctrl.dram.perBankRdBursts::7            86                       # Per bank write bursts (Count)
system.mem_ctrl.dram.perBankRdBursts::8            99                       # Per bank write bursts (Count)
system.mem_ctrl.dram.perBankRdBursts::9            57                       # Per bank write bursts (Count)
system.mem_ctrl.dram.perBankRdBursts::10           60                       # Per bank write bursts (Count)
system.mem_ctrl.dram.perBankRdBursts::11           93                       # Per bank write bursts (Count)
system.mem_ctrl.dram.perBankRdBursts::12          109                       # Per bank write bursts (Count)
system.mem_ctrl.dram.perBankRdBursts::13          144                       # Per bank write bursts (Count)
system.mem_ctrl.dram.perBankRdBursts::14           78                       # Per bank write bursts (Count)
system.mem_ctrl.dram.perBankRdBursts::15           54                       # Per bank write bursts (Count)
system.mem_ctrl.dram.perBankWrBursts::0            24                       # Per bank write bursts (Count)
system.mem_ctrl.dram.perBankWrBursts::1            19                       # Per bank write bursts (Count)
system.mem_ctrl.dram.perBankWrBursts::2             0                       # Per bank write bursts (Count)
system.mem_ctrl.dram.perBankWrBursts::3             0                       # Per bank write bursts (Count)
system.mem_ctrl.dram.perBankWrBursts::4             9                       # Per bank write bursts (Count)
system.mem_ctrl.dram.perBankWrBursts::5             1                       # Per bank write bursts (Count)
system.mem_ctrl.dram.perBankWrBursts::6            35                       # Per bank write bursts (Count)
system.mem_ctrl.dram.perBankWrBursts::7             6                       # Per bank write bursts (Count)
system.mem_ctrl.dram.perBankWrBursts::8             5                       # Per bank write bursts (Count)
system.mem_ctrl.dram.perBankWrBursts::9             2                       # Per bank write bursts (Count)
system.mem_ctrl.dram.perBankWrBursts::10            3                       # Per bank write bursts (Count)
system.mem_ctrl.dram.perBankWrBursts::11            2                       # Per bank write bursts (Count)
system.mem_ctrl.dram.perBankWrBursts::12           35                       # Per bank write bursts (Count)
system.mem_ctrl.dram.perBankWrBursts::13           13                       # Per bank write bursts (Count)
system.mem_ctrl.dram.perBankWrBursts::14            8                       # Per bank write bursts (Count)
system.mem_ctrl.dram.perBankWrBursts::15            0                       # Per bank write bursts (Count)
system.mem_ctrl.dram.totQLat                 20080750                       # Total ticks spent queuing (Tick)
system.mem_ctrl.dram.totBusLat                8325000                       # Total ticks spent in databus transfers (Tick)
system.mem_ctrl.dram.totMemAccLat            51299500                       # Total ticks spent from burst creation until serviced by the DRAM (Tick)
system.mem_ctrl.dram.avgQLat                 12060.51                       # Average queueing delay per DRAM burst ((Tick/Count))
system.mem_ctrl.dram.avgBusLat                5000.00                       # Average bus latency per DRAM burst ((Tick/Count))
system.mem_ctrl.dram.avgMemAccLat            30810.51                       # Average memory access latency per DRAM burst ((Tick/Count))
system.mem_ctrl.dram.readRowHits                  978                       # Number of row buffer hits during reads (Count)
system.mem_ctrl.dram.writeRowHits                 126                       # Number of row buffer hits during writes (Count)
system.mem_ctrl.dram.readRowHitRate             58.74                       # Row buffer hit rate for reads (Ratio)
system.mem_ctrl.dram.writeRowHitRate            77.78                       # Row buffer hit rate for writes (Ratio)
system.mem_ctrl.dram.bytesPerActivate::samples          718                       # Bytes accessed per row activation (Byte)
system.mem_ctrl.dram.bytesPerActivate::mean   162.139276                       # Bytes accessed per row activation (Byte)
system.mem_ctrl.dram.bytesPerActivate::gmean   113.080703                       # Bytes accessed per row activation (Byte)
system.mem_ctrl.dram.bytesPerActivate::stdev   183.848499                       # Bytes accessed per row activation (Byte)
system.mem_ctrl.dram.bytesPerActivate::0-127          396     55.15%     55.15% # Bytes accessed per row activation (Byte)
system.mem_ctrl.dram.bytesPerActivate::128-255          185     25.77%     80.92% # Bytes accessed per row activation (Byte)
system.mem_ctrl.dram.bytesPerActivate::256-383           66      9.19%     90.11% # Bytes accessed per row activation (Byte)
system.mem_ctrl.dram.bytesPerActivate::384-511           27      3.76%     93.87% # Bytes accessed per row activation (Byte)
system.mem_ctrl.dram.bytesPerActivate::512-639           15      2.09%     95.96% # Bytes accessed per row activation (Byte)
system.mem_ctrl.dram.bytesPerActivate::640-767            8      1.11%     97.08% # Bytes accessed per row activation (Byte)
system.mem_ctrl.dram.bytesPerActivate::768-895            4      0.56%     97.63% # Bytes accessed per row activation (Byte)
system.mem_ctrl.dram.bytesPerActivate::896-1023            7      0.97%     98.61% # Bytes accessed per row activation (Byte)
system.mem_ctrl.dram.bytesPerActivate::1024-1151           10      1.39%    100.00% # Bytes accessed per row activation (Byte)
system.mem_ctrl.dram.bytesPerActivate::total          718                       # Bytes accessed per row activation (Byte)
system.mem_ctrl.dram.dramBytesRead             106560                       # Total bytes read (Byte)
system.mem_ctrl.dram.dramBytesWritten           10368                       # Total bytes written (Byte)
system.mem_ctrl.dram.avgRdBW               488.672842                       # Average DRAM read bandwidth in MiBytes/s ((Byte/Second))
system.mem_ctrl.dram.avgWrBW                47.546547                       # Average DRAM write bandwidth in MiBytes/s ((Byte/Second))
system.mem_ctrl.dram.peakBW                  12800.00                       # Theoretical peak bandwidth in MiByte/s ((Byte/Second))
system.mem_ctrl.dram.busUtil                     4.19                       # Data bus utilization in percentage (Ratio)
system.mem_ctrl.dram.busUtilRead                 3.82                       # Data bus utilization in percentage for reads (Ratio)
system.mem_ctrl.dram.busUtilWrite                0.37                       # Data bus utilization in percentage for writes (Ratio)
system.mem_ctrl.dram.pageHitRate                60.43                       # Row buffer hit rate, read and write combined (Ratio)
system.mem_ctrl.dram.power_state.pwrStateResidencyTicks::UNDEFINED    218060000                       # Cumulative time (in ticks) in various power states (Tick)
system.mem_ctrl.dram.rank0.actEnergy          2713200                       # Energy for activate commands per rank (pJ) (Joule)
system.mem_ctrl.dram.rank0.preEnergy          1438305                       # Energy for precharge commands per rank (pJ) (Joule)
system.mem_ctrl.dram.rank0.readEnergy         6932940                       # Energy for read commands per rank (pJ) (Joule)
system.mem_ctrl.dram.rank0.writeEnergy         490680                       # Energy for write commands per rank (pJ) (Joule)
system.mem_ctrl.dram.rank0.refreshEnergy 17209920.000000                       # Energy for refresh commands per rank (pJ) (Joule)
system.mem_ctrl.dram.rank0.actBackEnergy     96767190                       # Energy for active background per rank (pJ) (Joule)
system.mem_ctrl.dram.rank0.preBackEnergy      2246880                       # Energy for precharge background per rank (pJ) (Joule)
system.mem_ctrl.dram.rank0.actPowerDownEnergy            0                       # Energy for active power-down per rank (pJ) (Joule)
system.mem_ctrl.dram.rank0.prePowerDownEnergy            0                       # Energy for precharge power-down per rank (pJ) (Joule)
system.mem_ctrl.dram.rank0.selfRefreshEnergy            0                       # Energy for self refresh per rank (pJ) (Joule)
system.mem_ctrl.dram.rank0.totalEnergy      127799115                       # Total energy per rank (pJ) (Joule)
system.mem_ctrl.dram.rank0.averagePower    586.073168                       # Core power per rank (mW) (Watt)
system.mem_ctrl.dram.rank0.totalIdleTime            0                       # Total Idle time Per DRAM Rank (Tick)
system.mem_ctrl.dram.rank0.pwrStateTime::IDLE      5076000                       # Time in different power states (Tick)
system.mem_ctrl.dram.rank0.pwrStateTime::REF      7280000                       # Time in different power states (Tick)
system.mem_ctrl.dram.rank0.pwrStateTime::SREF            0                       # Time in different power states (Tick)
system.mem_ctrl.dram.rank0.pwrStateTime::PRE_PDN            0                       # Time in different power states (Tick)
system.mem_ctrl.dram.rank0.pwrStateTime::ACT    205704000                       # Time in different power states (Tick)
system.mem_ctrl.dram.rank0.pwrStateTime::ACT_PDN            0                       # Time in different power states (Tick)
system.mem_ctrl.dram.rank1.actEnergy          2449020                       # Energy for activate commands per rank (pJ) (Joule)
system.mem_ctrl.dram.rank1.preEnergy          1286505                       # Energy for precharge commands per rank (pJ) (Joule)
system.mem_ctrl.dram.rank1.readEnergy         4955160                       # Energy for read commands per rank (pJ) (Joule)
system.mem_ctrl.dram.rank1.writeEnergy         354960                       # Energy for write commands per rank (pJ) (Joule)
system.mem_ctrl.dram.rank1.refreshEnergy 17209920.000000                       # Energy for refresh commands per rank (pJ) (Joule)
system.mem_ctrl.dram.rank1.actBackEnergy     92343990                       # Energy for active background per rank (pJ) (Joule)
system.mem_ctrl.dram.rank1.preBackEnergy      5971680                       # Energy for precharge background per rank (pJ) (Joule)
system.mem_ctrl.dram.rank1.actPowerDownEnergy            0                       # Energy for active power-down per rank (pJ) (Joule)
system.mem_ctrl.dram.rank1.prePowerDownEnergy            0                       # Energy for precharge power-down per rank (pJ) (Joule)
system.mem_ctrl.dram.rank1.selfRefreshEnergy            0                       # Energy for self refresh per rank (pJ) (Joule)
system.mem_ctrl.dram.rank1.totalEnergy      124571235                       # Total energy per rank (pJ) (Joule)
system.mem_ctrl.dram.rank1.averagePower    571.270453                       # Core power per rank (mW) (Watt)
system.mem_ctrl.dram.rank1.totalIdleTime            0                       # Total Idle time Per DRAM Rank (Tick)
system.mem_ctrl.dram.rank1.pwrStateTime::IDLE     14744250                       # Time in different power states (Tick)
system.mem_ctrl.dram.rank1.pwrStateTime::REF      7280000                       # Time in different power states (Tick)
system.mem_ctrl.dram.rank1.pwrStateTime::SREF            0                       # Time in different power states (Tick)
system.mem_ctrl.dram.rank1.pwrStateTime::PRE_PDN            0                       # Time in different power states (Tick)
system.mem_ctrl.dram.rank1.pwrStateTime::ACT    196035750                       # Time in different power states (Tick)
system.mem_ctrl.dram.rank1.pwrStateTime::ACT_PDN            0                       # Time in different power states (Tick)
system.mem_ctrl.power_state.pwrStateResidencyTicks::UNDEFINED    218060000                       # Cumulative time (in ticks) in various power states (Tick)
system.membus.transDist::ReadResp                1612                       # Transaction distribution (Count)
system.membus.transDist::WritebackDirty           162                       # Transaction distribution (Count)
system.membus.transDist::CleanEvict              1598                       # Transaction distribution (Count)
system.membus.transDist::ReadExReq                 69                       # Transaction distribution (Count)
system.membus.transDist::ReadExResp                69                       # Transaction distribution (Count)
system.membus.transDist::ReadSharedReq           1612                       # Transaction distribution (Count)
system.membus.pktCount_system.l2_cache.mem_side_port::system.mem_ctrl.port         5122                       # Packet count per connected requestor and responder (Count)
system.membus.pktCount_system.l2_cache.mem_side_port::total         5122                       # Packet count per connected requestor and responder (Count)
system.membus.pktCount::total                    5122                       # Packet count per connected requestor and responder (Count)
system.membus.pktSize_system.l2_cache.mem_side_port::system.mem_ctrl.port       117952                       # Cumulative packet size per connected requestor and responder (Byte)
system.membus.pktSize_system.l2_cache.mem_side_port::total       117952                       # Cumulative packet size per connected requestor and responder (Byte)
system.membus.pktSize::total                   117952                       # Cumulative packet size per connected requestor and responder (Byte)
system.membus.snoops                                0                       # Total snoops (Count)
system.membus.snoopTraffic                          0                       # Total snoop traffic (Byte)
system.membus.snoopFanout::samples               1681                       # Request fanout histogram (Count)
system.membus.snoopFanout::mean                     0                       # Request fanout histogram (Count)
system.membus.snoopFanout::stdev                    0                       # Request fanout histogram (Count)
system.membus.snoopFanout::underflows               0      0.00%      0.00% # Request fanout histogram (Count)
system.membus.snoopFanout::0                     1681    100.00%    100.00% # Request fanout histogram (Count)
system.membus.snoopFanout::1                        0      0.00%    100.00% # Request fanout histogram (Count)
system.membus.snoopFanout::overflows                0      0.00%    100.00% # Request fanout histogram (Count)
system.membus.snoopFanout::min_value                0                       # Request fanout histogram (Count)
system.membus.snoopFanout::max_value                0                       # Request fanout histogram (Count)
system.membus.snoopFanout::total                 1681                       # Request fanout histogram (Count)
system.membus.power_state.pwrStateResidencyTicks::UNDEFINED    218060000                       # Cumulative time (in ticks) in various power states (Tick)
system.membus.reqLayer2.occupancy             4089000                       # Layer occupancy (ticks) (Tick)
system.membus.reqLayer2.utilization               0.0                       # Layer utilization (Ratio)
system.membus.respLayer2.occupancy            9071500                       # Layer occupancy (ticks) (Tick)
system.membus.respLayer2.utilization              0.0                       # Layer utilization (Ratio)
system.membus.snoop_filter.totRequests           3441                       # Total number of requests made to the snoop filter. (Count)
system.membus.snoop_filter.hitSingleRequests         1760                       # Number of requests hitting in the snoop filter with a single holder of the requested data. (Count)
system.membus.snoop_filter.hitMultiRequests            0                       # Number of requests hitting in the snoop filter with multiple (>1) holders of the requested data. (Count)
system.membus.snoop_filter.totSnoops                0                       # Total number of snoops made to the snoop filter. (Count)
system.membus.snoop_filter.hitSingleSnoops            0                       # Number of snoops hitting in the snoop filter with a single holder of the requested data. (Count)
system.membus.snoop_filter.hitMultiSnoops            0                       # Number of snoops hitting in the snoop filter with multiple (>1) holders of the requested data. (Count)
system.workload.inst.arm                            0                       # number of arm instructions executed (Count)
system.workload.inst.quiesce                        0                       # number of quiesce instructions executed (Count)

---------- End Simulation Statistics   ----------
