
---------- Begin Simulation Statistics ----------
simSeconds                                   1.442013                       # Number of seconds simulated (Second)
simTicks                                 1442013448000                       # Number of ticks simulated (Tick)
finalTick                                1442013448000                       # Number of ticks from beginning of simulation (restored from checkpoints and never reset) (Tick)
simFreq                                  1000000000000                       # The number of ticks per simulated second ((Tick/Second))
hostSeconds                                   7334.46                       # Real time elapsed on the host (Second)
hostTickRate                                196608066                       # The number of ticks simulated per host second (ticks/s) ((Tick/Second))
hostMemory                                    8625432                       # Number of bytes of host memory used (Byte)
simInsts                                   1614600018                       # Number of instructions simulated (Count)
simOps                                     2897865933                       # Number of ops (including micro ops) simulated (Count)
hostInstRate                                   220139                       # Simulator instruction rate (inst/s) ((Count/Second))
hostOpRate                                     395103                       # Simulator op (including micro ops) rate (op/s) ((Count/Second))
system.clk_domain.clock                          1000                       # Clock period in ticks (Tick)
system.clk_domain.voltage_domain.voltage            1                       # Voltage in Volts (Volt)
system.cpu.numCycles                       1442013449                       # Number of cpu cycles simulated (Cycle)
system.cpu.cpi                               0.893109                       # CPI: cycles per instruction (core level) ((Cycle/Count))
system.cpu.ipc                               1.119684                       # IPC: instructions per cycle (core level) ((Count/Cycle))
system.cpu.numWorkItemsStarted                      0                       # Number of work items this cpu started (Count)
system.cpu.numWorkItemsCompleted                    0                       # Number of work items this cpu completed (Count)
system.cpu.instsAdded                      3682247633                       # Number of instructions added to the IQ (excludes non-spec) (Count)
system.cpu.nonSpecInstsAdded                     2355                       # Number of non-speculative instructions added to the IQ (Count)
system.cpu.instsIssued                     3616352193                       # Number of instructions issued (Count)
system.cpu.squashedInstsIssued                2007773                       # Number of squashed instructions issued (Count)
system.cpu.squashedInstsExamined            784384043                       # Number of squashed instructions iterated over during squash; mainly for profiling (Count)
system.cpu.squashedOperandsExamined         513654235                       # Number of squashed operands that are examined and possibly removed from graph (Count)
system.cpu.squashedNonSpecRemoved                 120                       # Number of squashed non-spec instructions that were removed (Count)
system.cpu.numIssuedDist::samples          1441777329                       # Number of insts issued each cycle (Count)
system.cpu.numIssuedDist::mean               2.508260                       # Number of insts issued each cycle (Count)
system.cpu.numIssuedDist::stdev              2.773505                       # Number of insts issued each cycle (Count)
system.cpu.numIssuedDist::underflows                0      0.00%      0.00% # Number of insts issued each cycle (Count)
system.cpu.numIssuedDist::0                 633541162     43.94%     43.94% # Number of insts issued each cycle (Count)
system.cpu.numIssuedDist::1                 115281408      8.00%     51.94% # Number of insts issued each cycle (Count)
system.cpu.numIssuedDist::2                  79925345      5.54%     57.48% # Number of insts issued each cycle (Count)
system.cpu.numIssuedDist::3                 102345581      7.10%     64.58% # Number of insts issued each cycle (Count)
system.cpu.numIssuedDist::4                  83888387      5.82%     70.40% # Number of insts issued each cycle (Count)
system.cpu.numIssuedDist::5                  90070953      6.25%     76.65% # Number of insts issued each cycle (Count)
system.cpu.numIssuedDist::6                 171872166     11.92%     88.57% # Number of insts issued each cycle (Count)
system.cpu.numIssuedDist::7                 101776573      7.06%     95.63% # Number of insts issued each cycle (Count)
system.cpu.numIssuedDist::8                  63075754      4.37%    100.00% # Number of insts issued each cycle (Count)
system.cpu.numIssuedDist::overflows                 0      0.00%    100.00% # Number of insts issued each cycle (Count)
system.cpu.numIssuedDist::min_value                 0                       # Number of insts issued each cycle (Count)
system.cpu.numIssuedDist::max_value                 8                       # Number of insts issued each cycle (Count)
system.cpu.numIssuedDist::total            1441777329                       # Number of insts issued each cycle (Count)
system.cpu.statFuBusy::No_OpClass                   0      0.00%      0.00% # attempts to use FU when none available (Count)
system.cpu.statFuBusy::IntAlu               131048903     98.77%     98.77% # attempts to use FU when none available (Count)
system.cpu.statFuBusy::IntMult                      0      0.00%     98.77% # attempts to use FU when none available (Count)
system.cpu.statFuBusy::IntDiv                       0      0.00%     98.77% # attempts to use FU when none available (Count)
system.cpu.statFuBusy::FloatAdd                     0      0.00%     98.77% # attempts to use FU when none available (Count)
system.cpu.statFuBusy::FloatCmp                     0      0.00%     98.77% # attempts to use FU when none available (Count)
system.cpu.statFuBusy::FloatCvt                     0      0.00%     98.77% # attempts to use FU when none available (Count)
system.cpu.statFuBusy::FloatMult                    0      0.00%     98.77% # attempts to use FU when none available (Count)
system.cpu.statFuBusy::FloatMultAcc                 0      0.00%     98.77% # attempts to use FU when none available (Count)
system.cpu.statFuBusy::FloatDiv                     0      0.00%     98.77% # attempts to use FU when none available (Count)
system.cpu.statFuBusy::FloatMisc                    0      0.00%     98.77% # attempts to use FU when none available (Count)
system.cpu.statFuBusy::FloatSqrt                    0      0.00%     98.77% # attempts to use FU when none available (Count)
system.cpu.statFuBusy::SimdAdd                      4      0.00%     98.77% # attempts to use FU when none available (Count)
system.cpu.statFuBusy::SimdAddAcc                   0      0.00%     98.77% # attempts to use FU when none available (Count)
system.cpu.statFuBusy::SimdAlu                    182      0.00%     98.77% # attempts to use FU when none available (Count)
system.cpu.statFuBusy::SimdCmp                      0      0.00%     98.77% # attempts to use FU when none available (Count)
system.cpu.statFuBusy::SimdCvt                    318      0.00%     98.77% # attempts to use FU when none available (Count)
system.cpu.statFuBusy::SimdMisc                    16      0.00%     98.77% # attempts to use FU when none available (Count)
system.cpu.statFuBusy::SimdMult                     0      0.00%     98.77% # attempts to use FU when none available (Count)
system.cpu.statFuBusy::SimdMultAcc                  0      0.00%     98.77% # attempts to use FU when none available (Count)
system.cpu.statFuBusy::SimdMatMultAcc               0      0.00%     98.77% # attempts to use FU when none available (Count)
system.cpu.statFuBusy::SimdShift                   93      0.00%     98.77% # attempts to use FU when none available (Count)
system.cpu.statFuBusy::SimdShiftAcc                 0      0.00%     98.77% # attempts to use FU when none available (Count)
system.cpu.statFuBusy::SimdDiv                      0      0.00%     98.77% # attempts to use FU when none available (Count)
system.cpu.statFuBusy::SimdSqrt                     0      0.00%     98.77% # attempts to use FU when none available (Count)
system.cpu.statFuBusy::SimdFloatAdd                 0      0.00%     98.77% # attempts to use FU when none available (Count)
system.cpu.statFuBusy::SimdFloatAlu                 0      0.00%     98.77% # attempts to use FU when none available (Count)
system.cpu.statFuBusy::SimdFloatCmp                 0      0.00%     98.77% # attempts to use FU when none available (Count)
system.cpu.statFuBusy::SimdFloatCvt                 0      0.00%     98.77% # attempts to use FU when none available (Count)
system.cpu.statFuBusy::SimdFloatDiv                 0      0.00%     98.77% # attempts to use FU when none available (Count)
system.cpu.statFuBusy::SimdFloatMisc                0      0.00%     98.77% # attempts to use FU when none available (Count)
system.cpu.statFuBusy::SimdFloatMult                0      0.00%     98.77% # attempts to use FU when none available (Count)
system.cpu.statFuBusy::SimdFloatMultAcc             0      0.00%     98.77% # attempts to use FU when none available (Count)
system.cpu.statFuBusy::SimdFloatMatMultAcc            0      0.00%     98.77% # attempts to use FU when none available (Count)
system.cpu.statFuBusy::SimdFloatSqrt                0      0.00%     98.77% # attempts to use FU when none available (Count)
system.cpu.statFuBusy::SimdReduceAdd                0      0.00%     98.77% # attempts to use FU when none available (Count)
system.cpu.statFuBusy::SimdReduceAlu                0      0.00%     98.77% # attempts to use FU when none available (Count)
system.cpu.statFuBusy::SimdReduceCmp                0      0.00%     98.77% # attempts to use FU when none available (Count)
system.cpu.statFuBusy::SimdFloatReduceAdd            0      0.00%     98.77% # attempts to use FU when none available (Count)
system.cpu.statFuBusy::SimdFloatReduceCmp            0      0.00%     98.77% # attempts to use FU when none available (Count)
system.cpu.statFuBusy::SimdAes                      0      0.00%     98.77% # attempts to use FU when none available (Count)
system.cpu.statFuBusy::SimdAesMix                   0      0.00%     98.77% # attempts to use FU when none available (Count)
system.cpu.statFuBusy::SimdSha1Hash                 0      0.00%     98.77% # attempts to use FU when none available (Count)
system.cpu.statFuBusy::SimdSha1Hash2                0      0.00%     98.77% # attempts to use FU when none available (Count)
system.cpu.statFuBusy::SimdSha256Hash               0      0.00%     98.77% # attempts to use FU when none available (Count)
system.cpu.statFuBusy::SimdSha256Hash2              0      0.00%     98.77% # attempts to use FU when none available (Count)
system.cpu.statFuBusy::SimdShaSigma2                0      0.00%     98.77% # attempts to use FU when none available (Count)
system.cpu.statFuBusy::SimdShaSigma3                0      0.00%     98.77% # attempts to use FU when none available (Count)
system.cpu.statFuBusy::SimdPredAlu                  0      0.00%     98.77% # attempts to use FU when none available (Count)
system.cpu.statFuBusy::Matrix                       0      0.00%     98.77% # attempts to use FU when none available (Count)
system.cpu.statFuBusy::MatrixMov                    0      0.00%     98.77% # attempts to use FU when none available (Count)
system.cpu.statFuBusy::MatrixOP                     0      0.00%     98.77% # attempts to use FU when none available (Count)
system.cpu.statFuBusy::MemRead                1592971      1.20%     99.97% # attempts to use FU when none available (Count)
system.cpu.statFuBusy::MemWrite                  5826      0.00%     99.98% # attempts to use FU when none available (Count)
system.cpu.statFuBusy::FloatMemRead             30074      0.02%    100.00% # attempts to use FU when none available (Count)
system.cpu.statFuBusy::FloatMemWrite              685      0.00%    100.00% # attempts to use FU when none available (Count)
system.cpu.statFuBusy::IprAccess                    0      0.00%    100.00% # attempts to use FU when none available (Count)
system.cpu.statFuBusy::InstPrefetch                 0      0.00%    100.00% # attempts to use FU when none available (Count)
system.cpu.statFuBusy::SimdUnitStrideLoad            0      0.00%    100.00% # attempts to use FU when none available (Count)
system.cpu.statFuBusy::SimdUnitStrideStore            0      0.00%    100.00% # attempts to use FU when none available (Count)
system.cpu.statFuBusy::SimdUnitStrideMaskLoad            0      0.00%    100.00% # attempts to use FU when none available (Count)
system.cpu.statFuBusy::SimdUnitStrideMaskStore            0      0.00%    100.00% # attempts to use FU when none available (Count)
system.cpu.statFuBusy::SimdStridedLoad              0      0.00%    100.00% # attempts to use FU when none available (Count)
system.cpu.statFuBusy::SimdStridedStore             0      0.00%    100.00% # attempts to use FU when none available (Count)
system.cpu.statFuBusy::SimdIndexedLoad              0      0.00%    100.00% # attempts to use FU when none available (Count)
system.cpu.statFuBusy::SimdIndexedStore             0      0.00%    100.00% # attempts to use FU when none available (Count)
system.cpu.statFuBusy::SimdWholeRegisterLoad            0      0.00%    100.00% # attempts to use FU when none available (Count)
system.cpu.statFuBusy::SimdWholeRegisterStore            0      0.00%    100.00% # attempts to use FU when none available (Count)
system.cpu.statFuBusy::SimdUnitStrideFaultOnlyFirstLoad            0      0.00%    100.00% # attempts to use FU when none available (Count)
system.cpu.statFuBusy::SimdUnitStrideSegmentedLoad            0      0.00%    100.00% # attempts to use FU when none available (Count)
system.cpu.statFuBusy::SimdUnitStrideSegmentedStore            0      0.00%    100.00% # attempts to use FU when none available (Count)
system.cpu.statFuBusy::SimdExt                      0      0.00%    100.00% # attempts to use FU when none available (Count)
system.cpu.statFuBusy::SimdFloatExt                 0      0.00%    100.00% # attempts to use FU when none available (Count)
system.cpu.statFuBusy::SimdConfig                   0      0.00%    100.00% # attempts to use FU when none available (Count)
system.cpu.statIssuedInstType_0::No_OpClass      6196307      0.17%      0.17% # Number of instructions issued per FU type, per thread (Count)
system.cpu.statIssuedInstType_0::IntAlu    2940195111     81.30%     81.47% # Number of instructions issued per FU type, per thread (Count)
system.cpu.statIssuedInstType_0::IntMult          433      0.00%     81.47% # Number of instructions issued per FU type, per thread (Count)
system.cpu.statIssuedInstType_0::IntDiv         42250      0.00%     81.48% # Number of instructions issued per FU type, per thread (Count)
system.cpu.statIssuedInstType_0::FloatAdd        21278      0.00%     81.48% # Number of instructions issued per FU type, per thread (Count)
system.cpu.statIssuedInstType_0::FloatCmp            0      0.00%     81.48% # Number of instructions issued per FU type, per thread (Count)
system.cpu.statIssuedInstType_0::FloatCvt         1254      0.00%     81.48% # Number of instructions issued per FU type, per thread (Count)
system.cpu.statIssuedInstType_0::FloatMult            0      0.00%     81.48% # Number of instructions issued per FU type, per thread (Count)
system.cpu.statIssuedInstType_0::FloatMultAcc            0      0.00%     81.48% # Number of instructions issued per FU type, per thread (Count)
system.cpu.statIssuedInstType_0::FloatDiv            0      0.00%     81.48% # Number of instructions issued per FU type, per thread (Count)
system.cpu.statIssuedInstType_0::FloatMisc            0      0.00%     81.48% # Number of instructions issued per FU type, per thread (Count)
system.cpu.statIssuedInstType_0::FloatSqrt            0      0.00%     81.48% # Number of instructions issued per FU type, per thread (Count)
system.cpu.statIssuedInstType_0::SimdAdd         7095      0.00%     81.48% # Number of instructions issued per FU type, per thread (Count)
system.cpu.statIssuedInstType_0::SimdAddAcc            0      0.00%     81.48% # Number of instructions issued per FU type, per thread (Count)
system.cpu.statIssuedInstType_0::SimdAlu      4071220      0.11%     81.59% # Number of instructions issued per FU type, per thread (Count)
system.cpu.statIssuedInstType_0::SimdCmp            6      0.00%     81.59% # Number of instructions issued per FU type, per thread (Count)
system.cpu.statIssuedInstType_0::SimdCvt        15435      0.00%     81.59% # Number of instructions issued per FU type, per thread (Count)
system.cpu.statIssuedInstType_0::SimdMisc        26979      0.00%     81.59% # Number of instructions issued per FU type, per thread (Count)
system.cpu.statIssuedInstType_0::SimdMult            0      0.00%     81.59% # Number of instructions issued per FU type, per thread (Count)
system.cpu.statIssuedInstType_0::SimdMultAcc            0      0.00%     81.59% # Number of instructions issued per FU type, per thread (Count)
system.cpu.statIssuedInstType_0::SimdMatMultAcc            0      0.00%     81.59% # Number of instructions issued per FU type, per thread (Count)
system.cpu.statIssuedInstType_0::SimdShift         3792      0.00%     81.59% # Number of instructions issued per FU type, per thread (Count)
system.cpu.statIssuedInstType_0::SimdShiftAcc            0      0.00%     81.59% # Number of instructions issued per FU type, per thread (Count)
system.cpu.statIssuedInstType_0::SimdDiv            0      0.00%     81.59% # Number of instructions issued per FU type, per thread (Count)
system.cpu.statIssuedInstType_0::SimdSqrt            0      0.00%     81.59% # Number of instructions issued per FU type, per thread (Count)
system.cpu.statIssuedInstType_0::SimdFloatAdd          123      0.00%     81.59% # Number of instructions issued per FU type, per thread (Count)
system.cpu.statIssuedInstType_0::SimdFloatAlu            0      0.00%     81.59% # Number of instructions issued per FU type, per thread (Count)
system.cpu.statIssuedInstType_0::SimdFloatCmp            0      0.00%     81.59% # Number of instructions issued per FU type, per thread (Count)
system.cpu.statIssuedInstType_0::SimdFloatCvt          246      0.00%     81.59% # Number of instructions issued per FU type, per thread (Count)
system.cpu.statIssuedInstType_0::SimdFloatDiv          123      0.00%     81.59% # Number of instructions issued per FU type, per thread (Count)
system.cpu.statIssuedInstType_0::SimdFloatMisc            0      0.00%     81.59% # Number of instructions issued per FU type, per thread (Count)
system.cpu.statIssuedInstType_0::SimdFloatMult            0      0.00%     81.59% # Number of instructions issued per FU type, per thread (Count)
system.cpu.statIssuedInstType_0::SimdFloatMultAcc            0      0.00%     81.59% # Number of instructions issued per FU type, per thread (Count)
system.cpu.statIssuedInstType_0::SimdFloatMatMultAcc            0      0.00%     81.59% # Number of instructions issued per FU type, per thread (Count)
system.cpu.statIssuedInstType_0::SimdFloatSqrt            0      0.00%     81.59% # Number of instructions issued per FU type, per thread (Count)
system.cpu.statIssuedInstType_0::SimdReduceAdd            0      0.00%     81.59% # Number of instructions issued per FU type, per thread (Count)
system.cpu.statIssuedInstType_0::SimdReduceAlu            0      0.00%     81.59% # Number of instructions issued per FU type, per thread (Count)
system.cpu.statIssuedInstType_0::SimdReduceCmp            0      0.00%     81.59% # Number of instructions issued per FU type, per thread (Count)
system.cpu.statIssuedInstType_0::SimdFloatReduceAdd            0      0.00%     81.59% # Number of instructions issued per FU type, per thread (Count)
system.cpu.statIssuedInstType_0::SimdFloatReduceCmp            0      0.00%     81.59% # Number of instructions issued per FU type, per thread (Count)
system.cpu.statIssuedInstType_0::SimdAes            0      0.00%     81.59% # Number of instructions issued per FU type, per thread (Count)
system.cpu.statIssuedInstType_0::SimdAesMix            0      0.00%     81.59% # Number of instructions issued per FU type, per thread (Count)
system.cpu.statIssuedInstType_0::SimdSha1Hash            0      0.00%     81.59% # Number of instructions issued per FU type, per thread (Count)
system.cpu.statIssuedInstType_0::SimdSha1Hash2            0      0.00%     81.59% # Number of instructions issued per FU type, per thread (Count)
system.cpu.statIssuedInstType_0::SimdSha256Hash            0      0.00%     81.59% # Number of instructions issued per FU type, per thread (Count)
system.cpu.statIssuedInstType_0::SimdSha256Hash2            0      0.00%     81.59% # Number of instructions issued per FU type, per thread (Count)
system.cpu.statIssuedInstType_0::SimdShaSigma2            0      0.00%     81.59% # Number of instructions issued per FU type, per thread (Count)
system.cpu.statIssuedInstType_0::SimdShaSigma3            0      0.00%     81.59% # Number of instructions issued per FU type, per thread (Count)
system.cpu.statIssuedInstType_0::SimdPredAlu            0      0.00%     81.59% # Number of instructions issued per FU type, per thread (Count)
system.cpu.statIssuedInstType_0::Matrix             0      0.00%     81.59% # Number of instructions issued per FU type, per thread (Count)
system.cpu.statIssuedInstType_0::MatrixMov            0      0.00%     81.59% # Number of instructions issued per FU type, per thread (Count)
system.cpu.statIssuedInstType_0::MatrixOP            0      0.00%     81.59% # Number of instructions issued per FU type, per thread (Count)
system.cpu.statIssuedInstType_0::MemRead    584143735     16.15%     97.74% # Number of instructions issued per FU type, per thread (Count)
system.cpu.statIssuedInstType_0::MemWrite     68133422      1.88%     99.63% # Number of instructions issued per FU type, per thread (Count)
system.cpu.statIssuedInstType_0::FloatMemRead      4586973      0.13%     99.75% # Number of instructions issued per FU type, per thread (Count)
system.cpu.statIssuedInstType_0::FloatMemWrite      8906411      0.25%    100.00% # Number of instructions issued per FU type, per thread (Count)
system.cpu.statIssuedInstType_0::IprAccess            0      0.00%    100.00% # Number of instructions issued per FU type, per thread (Count)
system.cpu.statIssuedInstType_0::InstPrefetch            0      0.00%    100.00% # Number of instructions issued per FU type, per thread (Count)
system.cpu.statIssuedInstType_0::SimdUnitStrideLoad            0      0.00%    100.00% # Number of instructions issued per FU type, per thread (Count)
system.cpu.statIssuedInstType_0::SimdUnitStrideStore            0      0.00%    100.00% # Number of instructions issued per FU type, per thread (Count)
system.cpu.statIssuedInstType_0::SimdUnitStrideMaskLoad            0      0.00%    100.00% # Number of instructions issued per FU type, per thread (Count)
system.cpu.statIssuedInstType_0::SimdUnitStrideMaskStore            0      0.00%    100.00% # Number of instructions issued per FU type, per thread (Count)
system.cpu.statIssuedInstType_0::SimdStridedLoad            0      0.00%    100.00% # Number of instructions issued per FU type, per thread (Count)
system.cpu.statIssuedInstType_0::SimdStridedStore            0      0.00%    100.00% # Number of instructions issued per FU type, per thread (Count)
system.cpu.statIssuedInstType_0::SimdIndexedLoad            0      0.00%    100.00% # Number of instructions issued per FU type, per thread (Count)
system.cpu.statIssuedInstType_0::SimdIndexedStore            0      0.00%    100.00% # Number of instructions issued per FU type, per thread (Count)
system.cpu.statIssuedInstType_0::SimdWholeRegisterLoad            0      0.00%    100.00% # Number of instructions issued per FU type, per thread (Count)
system.cpu.statIssuedInstType_0::SimdWholeRegisterStore            0      0.00%    100.00% # Number of instructions issued per FU type, per thread (Count)
system.cpu.statIssuedInstType_0::SimdUnitStrideFaultOnlyFirstLoad            0      0.00%    100.00% # Number of instructions issued per FU type, per thread (Count)
system.cpu.statIssuedInstType_0::SimdUnitStrideSegmentedLoad            0      0.00%    100.00% # Number of instructions issued per FU type, per thread (Count)
system.cpu.statIssuedInstType_0::SimdUnitStrideSegmentedStore            0      0.00%    100.00% # Number of instructions issued per FU type, per thread (Count)
system.cpu.statIssuedInstType_0::SimdExt            0      0.00%    100.00% # Number of instructions issued per FU type, per thread (Count)
system.cpu.statIssuedInstType_0::SimdFloatExt            0      0.00%    100.00% # Number of instructions issued per FU type, per thread (Count)
system.cpu.statIssuedInstType_0::SimdConfig            0      0.00%    100.00% # Number of instructions issued per FU type, per thread (Count)
system.cpu.statIssuedInstType_0::total     3616352193                       # Number of instructions issued per FU type, per thread (Count)
system.cpu.issueRate                         2.507849                       # Inst issue rate ((Count/Cycle))
system.cpu.fuBusy                           132679072                       # FU busy when requested (Count)
system.cpu.fuBusyRate                        0.036689                       # FU busy rate (busy events/executed inst) ((Count/Count))
system.cpu.intInstQueueReads               8773834189                       # Number of integer instruction queue reads (Count)
system.cpu.intInstQueueWrites              4449397593                       # Number of integer instruction queue writes (Count)
system.cpu.intInstQueueWakeupAccesses      3572427007                       # Number of integer instruction queue wakeup accesses (Count)
system.cpu.fpInstQueueReads                  35334369                       # Number of floating instruction queue reads (Count)
system.cpu.fpInstQueueWrites                 17239873                       # Number of floating instruction queue writes (Count)
system.cpu.fpInstQueueWakeupAccesses         17120234                       # Number of floating instruction queue wakeup accesses (Count)
system.cpu.vecInstQueueReads                        0                       # Number of vector instruction queue reads (Count)
system.cpu.vecInstQueueWrites                       0                       # Number of vector instruction queue writes (Count)
system.cpu.vecInstQueueWakeupAccesses               0                       # Number of vector instruction queue wakeup accesses (Count)
system.cpu.intAluAccesses                  3725152306                       # Number of integer alu accesses (Count)
system.cpu.fpAluAccesses                     17682652                       # Number of floating point alu accesses (Count)
system.cpu.vecAluAccesses                           0                       # Number of vector alu accesses (Count)
system.cpu.numSquashedInsts                   7496281                       # Number of squashed instructions skipped in execute (Count)
system.cpu.numSwp                                   0                       # Number of swp insts executed (Count)
system.cpu.timesIdled                            7433                       # Number of times that the entire CPU went into an idle state and unscheduled itself (Count)
system.cpu.idleCycles                          236120                       # Total number of cycles that the CPU has spent unscheduled due to idling (Cycle)
system.cpu.MemDepUnit__0.insertedLoads      593530783                       # Number of loads inserted to the mem dependence unit. (Count)
system.cpu.MemDepUnit__0.insertedStores      77960171                       # Number of stores inserted to the mem dependence unit. (Count)
system.cpu.MemDepUnit__0.conflictingLoads     12276252                       # Number of conflicting loads. (Count)
system.cpu.MemDepUnit__0.conflictingStores     19249658                       # Number of conflicting stores. (Count)
system.cpu.MemDepUnit__1.insertedLoads              0                       # Number of loads inserted to the mem dependence unit. (Count)
system.cpu.MemDepUnit__1.insertedStores             0                       # Number of stores inserted to the mem dependence unit. (Count)
system.cpu.MemDepUnit__1.conflictingLoads            0                       # Number of conflicting loads. (Count)
system.cpu.MemDepUnit__1.conflictingStores            0                       # Number of conflicting stores. (Count)
system.cpu.MemDepUnit__2.insertedLoads              0                       # Number of loads inserted to the mem dependence unit. (Count)
system.cpu.MemDepUnit__2.insertedStores             0                       # Number of stores inserted to the mem dependence unit. (Count)
system.cpu.MemDepUnit__2.conflictingLoads            0                       # Number of conflicting loads. (Count)
system.cpu.MemDepUnit__2.conflictingStores            0                       # Number of conflicting stores. (Count)
system.cpu.MemDepUnit__3.insertedLoads              0                       # Number of loads inserted to the mem dependence unit. (Count)
system.cpu.MemDepUnit__3.insertedStores             0                       # Number of stores inserted to the mem dependence unit. (Count)
system.cpu.MemDepUnit__3.conflictingLoads            0                       # Number of conflicting loads. (Count)
system.cpu.MemDepUnit__3.conflictingStores            0                       # Number of conflicting stores. (Count)
system.cpu.branchPred.lookups_0::NoBranch         2119      0.00%      0.00% # Number of BP lookups (Count)
system.cpu.branchPred.lookups_0::Return       4090085      0.93%      0.93% # Number of BP lookups (Count)
system.cpu.branchPred.lookups_0::CallDirect      4390373      1.00%      1.93% # Number of BP lookups (Count)
system.cpu.branchPred.lookups_0::CallIndirect         1264      0.00%      1.93% # Number of BP lookups (Count)
system.cpu.branchPred.lookups_0::DirectCond    389614185     88.75%     90.68% # Number of BP lookups (Count)
system.cpu.branchPred.lookups_0::DirectUncond     40898368      9.32%    100.00% # Number of BP lookups (Count)
system.cpu.branchPred.lookups_0::IndirectCond            0      0.00%    100.00% # Number of BP lookups (Count)
system.cpu.branchPred.lookups_0::IndirectUncond        10147      0.00%    100.00% # Number of BP lookups (Count)
system.cpu.branchPred.lookups_0::total      439006541                       # Number of BP lookups (Count)
system.cpu.branchPred.squashes_0::NoBranch         1868      0.00%      0.00% # Number of branches that got squashed (completely removed) as an earlier branch was mispredicted. (Count)
system.cpu.branchPred.squashes_0::Return        34089      0.03%      0.03% # Number of branches that got squashed (completely removed) as an earlier branch was mispredicted. (Count)
system.cpu.branchPred.squashes_0::CallDirect       334975      0.29%      0.32% # Number of branches that got squashed (completely removed) as an earlier branch was mispredicted. (Count)
system.cpu.branchPred.squashes_0::CallIndirect          661      0.00%      0.32% # Number of branches that got squashed (completely removed) as an earlier branch was mispredicted. (Count)
system.cpu.branchPred.squashes_0::DirectCond    103533331     88.58%     88.89% # Number of branches that got squashed (completely removed) as an earlier branch was mispredicted. (Count)
system.cpu.branchPred.squashes_0::DirectUncond     12976163     11.10%    100.00% # Number of branches that got squashed (completely removed) as an earlier branch was mispredicted. (Count)
system.cpu.branchPred.squashes_0::IndirectCond            0      0.00%    100.00% # Number of branches that got squashed (completely removed) as an earlier branch was mispredicted. (Count)
system.cpu.branchPred.squashes_0::IndirectUncond         4766      0.00%    100.00% # Number of branches that got squashed (completely removed) as an earlier branch was mispredicted. (Count)
system.cpu.branchPred.squashes_0::total     116885853                       # Number of branches that got squashed (completely removed) as an earlier branch was mispredicted. (Count)
system.cpu.branchPred.corrected_0::NoBranch          499      0.01%      0.01% # Number of branches that got corrected but not yet commited. Branches get corrected by decode or after execute. Also a branch misprediction can be detected out-of-order. Therefore, a corrected branch might not end up beeing committed in case an even earlier branch was mispredicted (Count)
system.cpu.branchPred.corrected_0::Return           16      0.00%      0.01% # Number of branches that got corrected but not yet commited. Branches get corrected by decode or after execute. Also a branch misprediction can be detected out-of-order. Therefore, a corrected branch might not end up beeing committed in case an even earlier branch was mispredicted (Count)
system.cpu.branchPred.corrected_0::CallDirect          747      0.01%      0.02% # Number of branches that got corrected but not yet commited. Branches get corrected by decode or after execute. Also a branch misprediction can be detected out-of-order. Therefore, a corrected branch might not end up beeing committed in case an even earlier branch was mispredicted (Count)
system.cpu.branchPred.corrected_0::CallIndirect          236      0.00%      0.02% # Number of branches that got corrected but not yet commited. Branches get corrected by decode or after execute. Also a branch misprediction can be detected out-of-order. Therefore, a corrected branch might not end up beeing committed in case an even earlier branch was mispredicted (Count)
system.cpu.branchPred.corrected_0::DirectCond      6325165     99.95%     99.97% # Number of branches that got corrected but not yet commited. Branches get corrected by decode or after execute. Also a branch misprediction can be detected out-of-order. Therefore, a corrected branch might not end up beeing committed in case an even earlier branch was mispredicted (Count)
system.cpu.branchPred.corrected_0::DirectUncond          620      0.01%     99.98% # Number of branches that got corrected but not yet commited. Branches get corrected by decode or after execute. Also a branch misprediction can be detected out-of-order. Therefore, a corrected branch might not end up beeing committed in case an even earlier branch was mispredicted (Count)
system.cpu.branchPred.corrected_0::IndirectCond            0      0.00%     99.98% # Number of branches that got corrected but not yet commited. Branches get corrected by decode or after execute. Also a branch misprediction can be detected out-of-order. Therefore, a corrected branch might not end up beeing committed in case an even earlier branch was mispredicted (Count)
system.cpu.branchPred.corrected_0::IndirectUncond         1160      0.02%    100.00% # Number of branches that got corrected but not yet commited. Branches get corrected by decode or after execute. Also a branch misprediction can be detected out-of-order. Therefore, a corrected branch might not end up beeing committed in case an even earlier branch was mispredicted (Count)
system.cpu.branchPred.corrected_0::total      6328443                       # Number of branches that got corrected but not yet commited. Branches get corrected by decode or after execute. Also a branch misprediction can be detected out-of-order. Therefore, a corrected branch might not end up beeing committed in case an even earlier branch was mispredicted (Count)
system.cpu.branchPred.earlyResteers_0::NoBranch            0                       # Number of branches that got redirected after decode. (Count)
system.cpu.branchPred.earlyResteers_0::Return            0                       # Number of branches that got redirected after decode. (Count)
system.cpu.branchPred.earlyResteers_0::CallDirect            0                       # Number of branches that got redirected after decode. (Count)
system.cpu.branchPred.earlyResteers_0::CallIndirect            0                       # Number of branches that got redirected after decode. (Count)
system.cpu.branchPred.earlyResteers_0::DirectCond            0                       # Number of branches that got redirected after decode. (Count)
system.cpu.branchPred.earlyResteers_0::DirectUncond            0                       # Number of branches that got redirected after decode. (Count)
system.cpu.branchPred.earlyResteers_0::IndirectCond            0                       # Number of branches that got redirected after decode. (Count)
system.cpu.branchPred.earlyResteers_0::IndirectUncond            0                       # Number of branches that got redirected after decode. (Count)
system.cpu.branchPred.earlyResteers_0::total            0                       # Number of branches that got redirected after decode. (Count)
system.cpu.branchPred.committed_0::NoBranch          251      0.00%      0.00% # Number of branches finally committed  (Count)
system.cpu.branchPred.committed_0::Return      4055995      1.26%      1.26% # Number of branches finally committed  (Count)
system.cpu.branchPred.committed_0::CallDirect      4055397      1.26%      2.52% # Number of branches finally committed  (Count)
system.cpu.branchPred.committed_0::CallIndirect          603      0.00%      2.52% # Number of branches finally committed  (Count)
system.cpu.branchPred.committed_0::DirectCond    286080854     88.81%     91.33% # Number of branches finally committed  (Count)
system.cpu.branchPred.committed_0::DirectUncond     27922205      8.67%    100.00% # Number of branches finally committed  (Count)
system.cpu.branchPred.committed_0::IndirectCond            0      0.00%    100.00% # Number of branches finally committed  (Count)
system.cpu.branchPred.committed_0::IndirectUncond         5381      0.00%    100.00% # Number of branches finally committed  (Count)
system.cpu.branchPred.committed_0::total    322120686                       # Number of branches finally committed  (Count)
system.cpu.branchPred.mispredicted_0::NoBranch          251      0.00%      0.00% # Number of committed branches that were mispredicted. (Count)
system.cpu.branchPred.mispredicted_0::Return            0      0.00%      0.00% # Number of committed branches that were mispredicted. (Count)
system.cpu.branchPred.mispredicted_0::CallDirect          495      0.01%      0.01% # Number of committed branches that were mispredicted. (Count)
system.cpu.branchPred.mispredicted_0::CallIndirect          208      0.00%      0.02% # Number of committed branches that were mispredicted. (Count)
system.cpu.branchPred.mispredicted_0::DirectCond      5913006     99.96%     99.98% # Number of committed branches that were mispredicted. (Count)
system.cpu.branchPred.mispredicted_0::DirectUncond          364      0.01%     99.98% # Number of committed branches that were mispredicted. (Count)
system.cpu.branchPred.mispredicted_0::IndirectCond            0      0.00%     99.98% # Number of committed branches that were mispredicted. (Count)
system.cpu.branchPred.mispredicted_0::IndirectUncond         1060      0.02%    100.00% # Number of committed branches that were mispredicted. (Count)
system.cpu.branchPred.mispredicted_0::total      5915384                       # Number of committed branches that were mispredicted. (Count)
system.cpu.branchPred.targetProvider_0::NoTarget    229802036     52.35%     52.35% # The component providing the target for taken branches (Count)
system.cpu.branchPred.targetProvider_0::BTB    205108886     46.72%     99.07% # The component providing the target for taken branches (Count)
system.cpu.branchPred.targetProvider_0::RAS      4090083      0.93%    100.00% # The component providing the target for taken branches (Count)
system.cpu.branchPred.targetProvider_0::Indirect         5536      0.00%    100.00% # The component providing the target for taken branches (Count)
system.cpu.branchPred.targetProvider_0::total    439006541                       # The component providing the target for taken branches (Count)
system.cpu.branchPred.targetWrong_0::NoBranch      2953046     46.68%     46.68% # Number of branches where the target was incorrect or not available at prediction time. (Count)
system.cpu.branchPred.targetWrong_0::Return      3373042     53.32%    100.00% # Number of branches where the target was incorrect or not available at prediction time. (Count)
system.cpu.branchPred.targetWrong_0::CallDirect           16      0.00%    100.00% # Number of branches where the target was incorrect or not available at prediction time. (Count)
system.cpu.branchPred.targetWrong_0::CallIndirect          154      0.00%    100.00% # Number of branches where the target was incorrect or not available at prediction time. (Count)
system.cpu.branchPred.targetWrong_0::DirectCond            0      0.00%    100.00% # Number of branches where the target was incorrect or not available at prediction time. (Count)
system.cpu.branchPred.targetWrong_0::DirectUncond            0      0.00%    100.00% # Number of branches where the target was incorrect or not available at prediction time. (Count)
system.cpu.branchPred.targetWrong_0::IndirectCond            0      0.00%    100.00% # Number of branches where the target was incorrect or not available at prediction time. (Count)
system.cpu.branchPred.targetWrong_0::IndirectUncond            0      0.00%    100.00% # Number of branches where the target was incorrect or not available at prediction time. (Count)
system.cpu.branchPred.targetWrong_0::total      6326258                       # Number of branches where the target was incorrect or not available at prediction time. (Count)
system.cpu.branchPred.condPredicted         389616304                       # Number of conditional branches predicted (Count)
system.cpu.branchPred.condPredictedTaken    159823222                       # Number of conditional branches predicted as taken (Count)
system.cpu.branchPred.condIncorrect           6328443                       # Number of conditional branches incorrect (Count)
system.cpu.branchPred.predTakenBTBMiss           1561                       # Number of branches predicted taken but missed in BTB (Count)
system.cpu.branchPred.NotTakenMispredicted      2954743                       # Number branches predicted 'not taken' but turned out to be taken (Count)
system.cpu.branchPred.TakenMispredicted       3373700                       # Number branches predicted taken but are actually not taken (Count)
system.cpu.branchPred.BTBLookups            439006541                       # Number of BTB lookups (Count)
system.cpu.branchPred.BTBUpdates              2952832                       # Number of BTB updates (Count)
system.cpu.branchPred.BTBHits               301452492                       # Number of BTB hits (Count)
system.cpu.branchPred.BTBHitRatio            0.686670                       # BTB Hit Ratio (Ratio)
system.cpu.branchPred.BTBMispredicted            2592                       # Number BTB mispredictions. No target found or target wrong (Count)
system.cpu.branchPred.indirectLookups           11411                       # Number of indirect predictor lookups. (Count)
system.cpu.branchPred.indirectHits               5536                       # Number of indirect target hits. (Count)
system.cpu.branchPred.indirectMisses             5875                       # Number of indirect misses. (Count)
system.cpu.branchPred.indirectMispredicted            0                       # Number of mispredicted indirect branches. (Count)
system.cpu.branchPred.btb.lookups::NoBranch         2119      0.00%      0.00% # Number of BTB lookups (Count)
system.cpu.branchPred.btb.lookups::Return      4090085      0.93%      0.93% # Number of BTB lookups (Count)
system.cpu.branchPred.btb.lookups::CallDirect      4390373      1.00%      1.93% # Number of BTB lookups (Count)
system.cpu.branchPred.btb.lookups::CallIndirect         1264      0.00%      1.93% # Number of BTB lookups (Count)
system.cpu.branchPred.btb.lookups::DirectCond    389614185     88.75%     90.68% # Number of BTB lookups (Count)
system.cpu.branchPred.btb.lookups::DirectUncond     40898368      9.32%    100.00% # Number of BTB lookups (Count)
system.cpu.branchPred.btb.lookups::IndirectCond            0      0.00%    100.00% # Number of BTB lookups (Count)
system.cpu.branchPred.btb.lookups::IndirectUncond        10147      0.00%    100.00% # Number of BTB lookups (Count)
system.cpu.branchPred.btb.lookups::total    439006541                       # Number of BTB lookups (Count)
system.cpu.branchPred.btb.misses::NoBranch          347      0.00%      0.00% # Number of BTB misses (Count)
system.cpu.branchPred.btb.misses::Return      4090085      2.97%      2.97% # Number of BTB misses (Count)
system.cpu.branchPred.btb.misses::CallDirect         1104      0.00%      2.97% # Number of BTB misses (Count)
system.cpu.branchPred.btb.misses::CallIndirect         1264      0.00%      2.98% # Number of BTB misses (Count)
system.cpu.branchPred.btb.misses::DirectCond    133450254     97.02%     99.99% # Number of BTB misses (Count)
system.cpu.branchPred.btb.misses::DirectUncond          848      0.00%     99.99% # Number of BTB misses (Count)
system.cpu.branchPred.btb.misses::IndirectCond            0      0.00%     99.99% # Number of BTB misses (Count)
system.cpu.branchPred.btb.misses::IndirectUncond        10147      0.01%    100.00% # Number of BTB misses (Count)
system.cpu.branchPred.btb.misses::total     137554049                       # Number of BTB misses (Count)
system.cpu.branchPred.btb.updates::NoBranch            0      0.00%      0.00% # Number of BTB updates (Count)
system.cpu.branchPred.btb.updates::Return            0      0.00%      0.00% # Number of BTB updates (Count)
system.cpu.branchPred.btb.updates::CallDirect          747      0.03%      0.03% # Number of BTB updates (Count)
system.cpu.branchPred.btb.updates::CallIndirect            0      0.00%      0.03% # Number of BTB updates (Count)
system.cpu.branchPred.btb.updates::DirectCond      2951465     99.95%     99.98% # Number of BTB updates (Count)
system.cpu.branchPred.btb.updates::DirectUncond          620      0.02%    100.00% # Number of BTB updates (Count)
system.cpu.branchPred.btb.updates::IndirectCond            0      0.00%    100.00% # Number of BTB updates (Count)
system.cpu.branchPred.btb.updates::IndirectUncond            0      0.00%    100.00% # Number of BTB updates (Count)
system.cpu.branchPred.btb.updates::total      2952832                       # Number of BTB updates (Count)
system.cpu.branchPred.btb.mispredict::NoBranch            0      0.00%      0.00% # Number of BTB mispredictions. No target found or target wrong. (Count)
system.cpu.branchPred.btb.mispredict::Return            0      0.00%      0.00% # Number of BTB mispredictions. No target found or target wrong. (Count)
system.cpu.branchPred.btb.mispredict::CallDirect          747      0.03%      0.03% # Number of BTB mispredictions. No target found or target wrong. (Count)
system.cpu.branchPred.btb.mispredict::CallIndirect            0      0.00%      0.03% # Number of BTB mispredictions. No target found or target wrong. (Count)
system.cpu.branchPred.btb.mispredict::DirectCond      2951465     99.95%     99.98% # Number of BTB mispredictions. No target found or target wrong. (Count)
system.cpu.branchPred.btb.mispredict::DirectUncond          620      0.02%    100.00% # Number of BTB mispredictions. No target found or target wrong. (Count)
system.cpu.branchPred.btb.mispredict::IndirectCond            0      0.00%    100.00% # Number of BTB mispredictions. No target found or target wrong. (Count)
system.cpu.branchPred.btb.mispredict::IndirectUncond            0      0.00%    100.00% # Number of BTB mispredictions. No target found or target wrong. (Count)
system.cpu.branchPred.btb.mispredict::total      2952832                       # Number of BTB mispredictions. No target found or target wrong. (Count)
system.cpu.branchPred.btb.power_state.pwrStateResidencyTicks::UNDEFINED 1442013448000                       # Cumulative time (in ticks) in various power states (Tick)
system.cpu.branchPred.indirectBranchPred.lookups        11411                       # Number of lookups (Count)
system.cpu.branchPred.indirectBranchPred.hits         5536                       # Number of hits of a tag (Count)
system.cpu.branchPred.indirectBranchPred.misses         5875                       # Number of misses (Count)
system.cpu.branchPred.indirectBranchPred.targetRecords         1396                       # Number of targets that where recorded/installed in the cache (Count)
system.cpu.branchPred.indirectBranchPred.indirectRecords        12807                       # Number of indirect branches/calls recorded in the indirect hist (Count)
system.cpu.branchPred.indirectBranchPred.speculativeOverflows            1                       # Number of times more than the allowed capacity for speculative branches/calls where in flight and destroy the path history (Count)
system.cpu.branchPred.ras.pushes              4425726                       # Number of times a PC was pushed onto the RAS (Count)
system.cpu.branchPred.ras.pops                4425721                       # Number of times a PC was poped from the RAS (Count)
system.cpu.branchPred.ras.squashes             369725                       # Number of times the stack operation was squashed due to wrong speculation. (Count)
system.cpu.branchPred.ras.used                4055995                       # Number of times the RAS is the provider (Count)
system.cpu.branchPred.ras.correct             4055995                       # Number of times the RAS is the provider and the prediction is correct (Count)
system.cpu.branchPred.ras.incorrect                 0                       # Number of times the RAS is the provider and the prediction is wrong (Count)
system.cpu.commit.commitSquashedInsts       783528608                       # The number of squashed insts skipped by commit (Count)
system.cpu.commit.commitNonSpecStalls            2235                       # The number of times commit has been forced to stall to communicate backwards (Count)
system.cpu.commit.branchMispredicts           6327349                       # The number of times a branch was mispredicted (Count)
system.cpu.commit.numCommittedDist::samples   1335489561                       # Number of insts commited each cycle (Count)
system.cpu.commit.numCommittedDist::mean     2.169890                       # Number of insts commited each cycle (Count)
system.cpu.commit.numCommittedDist::stdev     3.217814                       # Number of insts commited each cycle (Count)
system.cpu.commit.numCommittedDist::underflows            0      0.00%      0.00% # Number of insts commited each cycle (Count)
system.cpu.commit.numCommittedDist::0       801366109     60.01%     60.01% # Number of insts commited each cycle (Count)
system.cpu.commit.numCommittedDist::1        79861494      5.98%     65.99% # Number of insts commited each cycle (Count)
system.cpu.commit.numCommittedDist::2        40201127      3.01%     69.00% # Number of insts commited each cycle (Count)
system.cpu.commit.numCommittedDist::3        80683319      6.04%     75.04% # Number of insts commited each cycle (Count)
system.cpu.commit.numCommittedDist::4        20824242      1.56%     76.60% # Number of insts commited each cycle (Count)
system.cpu.commit.numCommittedDist::5        18608860      1.39%     77.99% # Number of insts commited each cycle (Count)
system.cpu.commit.numCommittedDist::6        11824143      0.89%     78.88% # Number of insts commited each cycle (Count)
system.cpu.commit.numCommittedDist::7         8696034      0.65%     79.53% # Number of insts commited each cycle (Count)
system.cpu.commit.numCommittedDist::8       273424233     20.47%    100.00% # Number of insts commited each cycle (Count)
system.cpu.commit.numCommittedDist::overflows            0      0.00%    100.00% # Number of insts commited each cycle (Count)
system.cpu.commit.numCommittedDist::min_value            0                       # Number of insts commited each cycle (Count)
system.cpu.commit.numCommittedDist::max_value            8                       # Number of insts commited each cycle (Count)
system.cpu.commit.numCommittedDist::total   1335489561                       # Number of insts commited each cycle (Count)
system.cpu.commit.amos                              0                       # Number of atomic instructions committed (Count)
system.cpu.commit.membars                        1022                       # Number of memory barriers committed (Count)
system.cpu.commit.functionCalls               4056000                       # Number of function calls committed. (Count)
system.cpu.commit.committedInstType_0::No_OpClass      6080882      0.21%      0.21% # Class of committed instruction (Count)
system.cpu.commit.committedInstType_0::IntAlu   2350113033     81.10%     81.31% # Class of committed instruction (Count)
system.cpu.commit.committedInstType_0::IntMult          219      0.00%     81.31% # Class of committed instruction (Count)
system.cpu.commit.committedInstType_0::IntDiv        38761      0.00%     81.31% # Class of committed instruction (Count)
system.cpu.commit.committedInstType_0::FloatAdd        19401      0.00%     81.31% # Class of committed instruction (Count)
system.cpu.commit.committedInstType_0::FloatCmp            0      0.00%     81.31% # Class of committed instruction (Count)
system.cpu.commit.committedInstType_0::FloatCvt         1232      0.00%     81.31% # Class of committed instruction (Count)
system.cpu.commit.committedInstType_0::FloatMult            0      0.00%     81.31% # Class of committed instruction (Count)
system.cpu.commit.committedInstType_0::FloatMultAcc            0      0.00%     81.31% # Class of committed instruction (Count)
system.cpu.commit.committedInstType_0::FloatDiv            0      0.00%     81.31% # Class of committed instruction (Count)
system.cpu.commit.committedInstType_0::FloatMisc            0      0.00%     81.31% # Class of committed instruction (Count)
system.cpu.commit.committedInstType_0::FloatSqrt            0      0.00%     81.31% # Class of committed instruction (Count)
system.cpu.commit.committedInstType_0::SimdAdd         6430      0.00%     81.31% # Class of committed instruction (Count)
system.cpu.commit.committedInstType_0::SimdAddAcc            0      0.00%     81.31% # Class of committed instruction (Count)
system.cpu.commit.committedInstType_0::SimdAlu      4055917      0.14%     81.45% # Class of committed instruction (Count)
system.cpu.commit.committedInstType_0::SimdCmp            6      0.00%     81.45% # Class of committed instruction (Count)
system.cpu.commit.committedInstType_0::SimdCvt        13344      0.00%     81.45% # Class of committed instruction (Count)
system.cpu.commit.committedInstType_0::SimdMisc        25909      0.00%     81.45% # Class of committed instruction (Count)
system.cpu.commit.committedInstType_0::SimdMult            0      0.00%     81.45% # Class of committed instruction (Count)
system.cpu.commit.committedInstType_0::SimdMultAcc            0      0.00%     81.45% # Class of committed instruction (Count)
system.cpu.commit.committedInstType_0::SimdMatMultAcc            0      0.00%     81.45% # Class of committed instruction (Count)
system.cpu.commit.committedInstType_0::SimdShift         1700      0.00%     81.45% # Class of committed instruction (Count)
system.cpu.commit.committedInstType_0::SimdShiftAcc            0      0.00%     81.45% # Class of committed instruction (Count)
system.cpu.commit.committedInstType_0::SimdDiv            0      0.00%     81.45% # Class of committed instruction (Count)
system.cpu.commit.committedInstType_0::SimdSqrt            0      0.00%     81.45% # Class of committed instruction (Count)
system.cpu.commit.committedInstType_0::SimdFloatAdd           62      0.00%     81.45% # Class of committed instruction (Count)
system.cpu.commit.committedInstType_0::SimdFloatAlu            0      0.00%     81.45% # Class of committed instruction (Count)
system.cpu.commit.committedInstType_0::SimdFloatCmp            0      0.00%     81.45% # Class of committed instruction (Count)
system.cpu.commit.committedInstType_0::SimdFloatCvt          124      0.00%     81.45% # Class of committed instruction (Count)
system.cpu.commit.committedInstType_0::SimdFloatDiv           62      0.00%     81.45% # Class of committed instruction (Count)
system.cpu.commit.committedInstType_0::SimdFloatMisc            0      0.00%     81.45% # Class of committed instruction (Count)
system.cpu.commit.committedInstType_0::SimdFloatMult            0      0.00%     81.45% # Class of committed instruction (Count)
system.cpu.commit.committedInstType_0::SimdFloatMultAcc            0      0.00%     81.45% # Class of committed instruction (Count)
system.cpu.commit.committedInstType_0::SimdFloatMatMultAcc            0      0.00%     81.45% # Class of committed instruction (Count)
system.cpu.commit.committedInstType_0::SimdFloatSqrt            0      0.00%     81.45% # Class of committed instruction (Count)
system.cpu.commit.committedInstType_0::SimdReduceAdd            0      0.00%     81.45% # Class of committed instruction (Count)
system.cpu.commit.committedInstType_0::SimdReduceAlu            0      0.00%     81.45% # Class of committed instruction (Count)
system.cpu.commit.committedInstType_0::SimdReduceCmp            0      0.00%     81.45% # Class of committed instruction (Count)
system.cpu.commit.committedInstType_0::SimdFloatReduceAdd            0      0.00%     81.45% # Class of committed instruction (Count)
system.cpu.commit.committedInstType_0::SimdFloatReduceCmp            0      0.00%     81.45% # Class of committed instruction (Count)
system.cpu.commit.committedInstType_0::SimdAes            0      0.00%     81.45% # Class of committed instruction (Count)
system.cpu.commit.committedInstType_0::SimdAesMix            0      0.00%     81.45% # Class of committed instruction (Count)
system.cpu.commit.committedInstType_0::SimdSha1Hash            0      0.00%     81.45% # Class of committed instruction (Count)
system.cpu.commit.committedInstType_0::SimdSha1Hash2            0      0.00%     81.45% # Class of committed instruction (Count)
system.cpu.commit.committedInstType_0::SimdSha256Hash            0      0.00%     81.45% # Class of committed instruction (Count)
system.cpu.commit.committedInstType_0::SimdSha256Hash2            0      0.00%     81.45% # Class of committed instruction (Count)
system.cpu.commit.committedInstType_0::SimdShaSigma2            0      0.00%     81.45% # Class of committed instruction (Count)
system.cpu.commit.committedInstType_0::SimdShaSigma3            0      0.00%     81.45% # Class of committed instruction (Count)
system.cpu.commit.committedInstType_0::SimdPredAlu            0      0.00%     81.45% # Class of committed instruction (Count)
system.cpu.commit.committedInstType_0::Matrix            0      0.00%     81.45% # Class of committed instruction (Count)
system.cpu.commit.committedInstType_0::MatrixMov            0      0.00%     81.45% # Class of committed instruction (Count)
system.cpu.commit.committedInstType_0::MatrixOP            0      0.00%     81.45% # Class of committed instruction (Count)
system.cpu.commit.committedInstType_0::MemRead    464375667     16.02%     97.48% # Class of committed instruction (Count)
system.cpu.commit.committedInstType_0::MemWrite     60185611      2.08%     99.55% # Class of committed instruction (Count)
system.cpu.commit.committedInstType_0::FloatMemRead      4059998      0.14%     99.69% # Class of committed instruction (Count)
system.cpu.commit.committedInstType_0::FloatMemWrite      8887575      0.31%    100.00% # Class of committed instruction (Count)
system.cpu.commit.committedInstType_0::IprAccess            0      0.00%    100.00% # Class of committed instruction (Count)
system.cpu.commit.committedInstType_0::InstPrefetch            0      0.00%    100.00% # Class of committed instruction (Count)
system.cpu.commit.committedInstType_0::SimdUnitStrideLoad            0      0.00%    100.00% # Class of committed instruction (Count)
system.cpu.commit.committedInstType_0::SimdUnitStrideStore            0      0.00%    100.00% # Class of committed instruction (Count)
system.cpu.commit.committedInstType_0::SimdUnitStrideMaskLoad            0      0.00%    100.00% # Class of committed instruction (Count)
system.cpu.commit.committedInstType_0::SimdUnitStrideMaskStore            0      0.00%    100.00% # Class of committed instruction (Count)
system.cpu.commit.committedInstType_0::SimdStridedLoad            0      0.00%    100.00% # Class of committed instruction (Count)
system.cpu.commit.committedInstType_0::SimdStridedStore            0      0.00%    100.00% # Class of committed instruction (Count)
system.cpu.commit.committedInstType_0::SimdIndexedLoad            0      0.00%    100.00% # Class of committed instruction (Count)
system.cpu.commit.committedInstType_0::SimdIndexedStore            0      0.00%    100.00% # Class of committed instruction (Count)
system.cpu.commit.committedInstType_0::SimdWholeRegisterLoad            0      0.00%    100.00% # Class of committed instruction (Count)
system.cpu.commit.committedInstType_0::SimdWholeRegisterStore            0      0.00%    100.00% # Class of committed instruction (Count)
system.cpu.commit.committedInstType_0::SimdUnitStrideFaultOnlyFirstLoad            0      0.00%    100.00% # Class of committed instruction (Count)
system.cpu.commit.committedInstType_0::SimdUnitStrideSegmentedLoad            0      0.00%    100.00% # Class of committed instruction (Count)
system.cpu.commit.committedInstType_0::SimdUnitStrideSegmentedStore            0      0.00%    100.00% # Class of committed instruction (Count)
system.cpu.commit.committedInstType_0::SimdExt            0      0.00%    100.00% # Class of committed instruction (Count)
system.cpu.commit.committedInstType_0::SimdFloatExt            0      0.00%    100.00% # Class of committed instruction (Count)
system.cpu.commit.committedInstType_0::SimdConfig            0      0.00%    100.00% # Class of committed instruction (Count)
system.cpu.commit.committedInstType_0::total   2897865933                       # Class of committed instruction (Count)
system.cpu.commit.commitEligibleSamples     273424233                       # number cycles where commit BW limit reached (Cycle)
system.cpu.commitStats0.numInsts           1614600018                       # Number of instructions committed (thread level) (Count)
system.cpu.commitStats0.numOps             2897865933                       # Number of ops (including micro ops) committed (thread level) (Count)
system.cpu.commitStats0.numInstsNotNOP     1614600018                       # Number of instructions committed excluding NOPs or prefetches (Count)
system.cpu.commitStats0.numOpsNotNOP       2897865933                       # Number of Ops (including micro ops) Simulated (Count)
system.cpu.commitStats0.cpi                  0.893109                       # CPI: cycles per instruction (thread level) ((Cycle/Count))
system.cpu.commitStats0.ipc                  1.119684                       # IPC: instructions per cycle (thread level) ((Count/Cycle))
system.cpu.commitStats0.numMemRefs          537508851                       # Number of memory references committed (Count)
system.cpu.commitStats0.numFpInsts           17081655                       # Number of float instructions (Count)
system.cpu.commitStats0.numIntInsts        2887664643                       # Number of integer instructions (Count)
system.cpu.commitStats0.numLoadInsts        468435665                       # Number of load instructions (Count)
system.cpu.commitStats0.numStoreInsts        69073186                       # Number of store instructions (Count)
system.cpu.commitStats0.numVecInsts                 0                       # Number of vector instructions (Count)
system.cpu.commitStats0.committedInstType::No_OpClass      6080882      0.21%      0.21% # Class of committed instruction. (Count)
system.cpu.commitStats0.committedInstType::IntAlu   2350113033     81.10%     81.31% # Class of committed instruction. (Count)
system.cpu.commitStats0.committedInstType::IntMult          219      0.00%     81.31% # Class of committed instruction. (Count)
system.cpu.commitStats0.committedInstType::IntDiv        38761      0.00%     81.31% # Class of committed instruction. (Count)
system.cpu.commitStats0.committedInstType::FloatAdd        19401      0.00%     81.31% # Class of committed instruction. (Count)
system.cpu.commitStats0.committedInstType::FloatCmp            0      0.00%     81.31% # Class of committed instruction. (Count)
system.cpu.commitStats0.committedInstType::FloatCvt         1232      0.00%     81.31% # Class of committed instruction. (Count)
system.cpu.commitStats0.committedInstType::FloatMult            0      0.00%     81.31% # Class of committed instruction. (Count)
system.cpu.commitStats0.committedInstType::FloatMultAcc            0      0.00%     81.31% # Class of committed instruction. (Count)
system.cpu.commitStats0.committedInstType::FloatDiv            0      0.00%     81.31% # Class of committed instruction. (Count)
system.cpu.commitStats0.committedInstType::FloatMisc            0      0.00%     81.31% # Class of committed instruction. (Count)
system.cpu.commitStats0.committedInstType::FloatSqrt            0      0.00%     81.31% # Class of committed instruction. (Count)
system.cpu.commitStats0.committedInstType::SimdAdd         6430      0.00%     81.31% # Class of committed instruction. (Count)
system.cpu.commitStats0.committedInstType::SimdAddAcc            0      0.00%     81.31% # Class of committed instruction. (Count)
system.cpu.commitStats0.committedInstType::SimdAlu      4055917      0.14%     81.45% # Class of committed instruction. (Count)
system.cpu.commitStats0.committedInstType::SimdCmp            6      0.00%     81.45% # Class of committed instruction. (Count)
system.cpu.commitStats0.committedInstType::SimdCvt        13344      0.00%     81.45% # Class of committed instruction. (Count)
system.cpu.commitStats0.committedInstType::SimdMisc        25909      0.00%     81.45% # Class of committed instruction. (Count)
system.cpu.commitStats0.committedInstType::SimdMult            0      0.00%     81.45% # Class of committed instruction. (Count)
system.cpu.commitStats0.committedInstType::SimdMultAcc            0      0.00%     81.45% # Class of committed instruction. (Count)
system.cpu.commitStats0.committedInstType::SimdMatMultAcc            0      0.00%     81.45% # Class of committed instruction. (Count)
system.cpu.commitStats0.committedInstType::SimdShift         1700      0.00%     81.45% # Class of committed instruction. (Count)
system.cpu.commitStats0.committedInstType::SimdShiftAcc            0      0.00%     81.45% # Class of committed instruction. (Count)
system.cpu.commitStats0.committedInstType::SimdDiv            0      0.00%     81.45% # Class of committed instruction. (Count)
system.cpu.commitStats0.committedInstType::SimdSqrt            0      0.00%     81.45% # Class of committed instruction. (Count)
system.cpu.commitStats0.committedInstType::SimdFloatAdd           62      0.00%     81.45% # Class of committed instruction. (Count)
system.cpu.commitStats0.committedInstType::SimdFloatAlu            0      0.00%     81.45% # Class of committed instruction. (Count)
system.cpu.commitStats0.committedInstType::SimdFloatCmp            0      0.00%     81.45% # Class of committed instruction. (Count)
system.cpu.commitStats0.committedInstType::SimdFloatCvt          124      0.00%     81.45% # Class of committed instruction. (Count)
system.cpu.commitStats0.committedInstType::SimdFloatDiv           62      0.00%     81.45% # Class of committed instruction. (Count)
system.cpu.commitStats0.committedInstType::SimdFloatMisc            0      0.00%     81.45% # Class of committed instruction. (Count)
system.cpu.commitStats0.committedInstType::SimdFloatMult            0      0.00%     81.45% # Class of committed instruction. (Count)
system.cpu.commitStats0.committedInstType::SimdFloatMultAcc            0      0.00%     81.45% # Class of committed instruction. (Count)
system.cpu.commitStats0.committedInstType::SimdFloatMatMultAcc            0      0.00%     81.45% # Class of committed instruction. (Count)
system.cpu.commitStats0.committedInstType::SimdFloatSqrt            0      0.00%     81.45% # Class of committed instruction. (Count)
system.cpu.commitStats0.committedInstType::SimdReduceAdd            0      0.00%     81.45% # Class of committed instruction. (Count)
system.cpu.commitStats0.committedInstType::SimdReduceAlu            0      0.00%     81.45% # Class of committed instruction. (Count)
system.cpu.commitStats0.committedInstType::SimdReduceCmp            0      0.00%     81.45% # Class of committed instruction. (Count)
system.cpu.commitStats0.committedInstType::SimdFloatReduceAdd            0      0.00%     81.45% # Class of committed instruction. (Count)
system.cpu.commitStats0.committedInstType::SimdFloatReduceCmp            0      0.00%     81.45% # Class of committed instruction. (Count)
system.cpu.commitStats0.committedInstType::SimdAes            0      0.00%     81.45% # Class of committed instruction. (Count)
system.cpu.commitStats0.committedInstType::SimdAesMix            0      0.00%     81.45% # Class of committed instruction. (Count)
system.cpu.commitStats0.committedInstType::SimdSha1Hash            0      0.00%     81.45% # Class of committed instruction. (Count)
system.cpu.commitStats0.committedInstType::SimdSha1Hash2            0      0.00%     81.45% # Class of committed instruction. (Count)
system.cpu.commitStats0.committedInstType::SimdSha256Hash            0      0.00%     81.45% # Class of committed instruction. (Count)
system.cpu.commitStats0.committedInstType::SimdSha256Hash2            0      0.00%     81.45% # Class of committed instruction. (Count)
system.cpu.commitStats0.committedInstType::SimdShaSigma2            0      0.00%     81.45% # Class of committed instruction. (Count)
system.cpu.commitStats0.committedInstType::SimdShaSigma3            0      0.00%     81.45% # Class of committed instruction. (Count)
system.cpu.commitStats0.committedInstType::SimdPredAlu            0      0.00%     81.45% # Class of committed instruction. (Count)
system.cpu.commitStats0.committedInstType::Matrix            0      0.00%     81.45% # Class of committed instruction. (Count)
system.cpu.commitStats0.committedInstType::MatrixMov            0      0.00%     81.45% # Class of committed instruction. (Count)
system.cpu.commitStats0.committedInstType::MatrixOP            0      0.00%     81.45% # Class of committed instruction. (Count)
system.cpu.commitStats0.committedInstType::MemRead    464375667     16.02%     97.48% # Class of committed instruction. (Count)
system.cpu.commitStats0.committedInstType::MemWrite     60185611      2.08%     99.55% # Class of committed instruction. (Count)
system.cpu.commitStats0.committedInstType::FloatMemRead      4059998      0.14%     99.69% # Class of committed instruction. (Count)
system.cpu.commitStats0.committedInstType::FloatMemWrite      8887575      0.31%    100.00% # Class of committed instruction. (Count)
system.cpu.commitStats0.committedInstType::IprAccess            0      0.00%    100.00% # Class of committed instruction. (Count)
system.cpu.commitStats0.committedInstType::InstPrefetch            0      0.00%    100.00% # Class of committed instruction. (Count)
system.cpu.commitStats0.committedInstType::SimdUnitStrideLoad            0      0.00%    100.00% # Class of committed instruction. (Count)
system.cpu.commitStats0.committedInstType::SimdUnitStrideStore            0      0.00%    100.00% # Class of committed instruction. (Count)
system.cpu.commitStats0.committedInstType::SimdUnitStrideMaskLoad            0      0.00%    100.00% # Class of committed instruction. (Count)
system.cpu.commitStats0.committedInstType::SimdUnitStrideMaskStore            0      0.00%    100.00% # Class of committed instruction. (Count)
system.cpu.commitStats0.committedInstType::SimdStridedLoad            0      0.00%    100.00% # Class of committed instruction. (Count)
system.cpu.commitStats0.committedInstType::SimdStridedStore            0      0.00%    100.00% # Class of committed instruction. (Count)
system.cpu.commitStats0.committedInstType::SimdIndexedLoad            0      0.00%    100.00% # Class of committed instruction. (Count)
system.cpu.commitStats0.committedInstType::SimdIndexedStore            0      0.00%    100.00% # Class of committed instruction. (Count)
system.cpu.commitStats0.committedInstType::SimdWholeRegisterLoad            0      0.00%    100.00% # Class of committed instruction. (Count)
system.cpu.commitStats0.committedInstType::SimdWholeRegisterStore            0      0.00%    100.00% # Class of committed instruction. (Count)
system.cpu.commitStats0.committedInstType::SimdUnitStrideFaultOnlyFirstLoad            0      0.00%    100.00% # Class of committed instruction. (Count)
system.cpu.commitStats0.committedInstType::SimdUnitStrideSegmentedLoad            0      0.00%    100.00% # Class of committed instruction. (Count)
system.cpu.commitStats0.committedInstType::SimdUnitStrideSegmentedStore            0      0.00%    100.00% # Class of committed instruction. (Count)
system.cpu.commitStats0.committedInstType::SimdExt            0      0.00%    100.00% # Class of committed instruction. (Count)
system.cpu.commitStats0.committedInstType::SimdFloatExt            0      0.00%    100.00% # Class of committed instruction. (Count)
system.cpu.commitStats0.committedInstType::SimdConfig            0      0.00%    100.00% # Class of committed instruction. (Count)
system.cpu.commitStats0.committedInstType::total   2897865933                       # Class of committed instruction. (Count)
system.cpu.commitStats0.committedControl::IsControl    322120686                       # Class of control type instructions committed (Count)
system.cpu.commitStats0.committedControl::IsDirectControl    318058456                       # Class of control type instructions committed (Count)
system.cpu.commitStats0.committedControl::IsIndirectControl      4061979                       # Class of control type instructions committed (Count)
system.cpu.commitStats0.committedControl::IsCondControl    286080854                       # Class of control type instructions committed (Count)
system.cpu.commitStats0.committedControl::IsUncondControl     36039581                       # Class of control type instructions committed (Count)
system.cpu.commitStats0.committedControl::IsCall      4056000                       # Class of control type instructions committed (Count)
system.cpu.commitStats0.committedControl::IsReturn      4055995                       # Class of control type instructions committed (Count)
system.cpu.decode.idleCycles                 85978619                       # Number of cycles decode is idle (Cycle)
system.cpu.decode.blockedCycles             795843493                       # Number of cycles decode is blocked (Cycle)
system.cpu.decode.runCycles                 490745376                       # Number of cycles decode is running (Cycle)
system.cpu.decode.unblockCycles              62866074                       # Number of cycles decode is unblocking (Cycle)
system.cpu.decode.squashCycles                6343767                       # Number of cycles decode is squashing (Cycle)
system.cpu.decode.branchResolved            193790985                       # Number of times decode resolved a branch (Count)
system.cpu.decode.branchMispred                  1479                       # Number of times decode detected a branch misprediction (Count)
system.cpu.decode.decodedInsts             3748254028                       # Number of instructions handled by decode (Count)
system.cpu.decode.squashedInsts                  7589                       # Number of squashed instructions handled by decode (Count)
system.cpu.executeStats0.numInsts          3608855910                       # Number of executed instructions (Count)
system.cpu.executeStats0.numNop                     0                       # Number of nop insts executed (Count)
system.cpu.executeStats0.numBranches        385552632                       # Number of branches executed (Count)
system.cpu.executeStats0.numLoadInsts       586909207                       # Number of load instructions executed (Count)
system.cpu.executeStats0.numStoreInsts       76766920                       # Number of stores executed (Count)
system.cpu.executeStats0.instRate            2.502651                       # Inst execution rate ((Count/Cycle))
system.cpu.executeStats0.numCCRegReads     2586337205                       # Number of times the CC registers were read (Count)
system.cpu.executeStats0.numCCRegWrites    1506234026                       # Number of times the CC registers were written (Count)
system.cpu.executeStats0.numFpRegReads       17172853                       # Number of times the floating registers were read (Count)
system.cpu.executeStats0.numFpRegWrites       8214101                       # Number of times the floating registers were written (Count)
system.cpu.executeStats0.numIntRegReads    4774903449                       # Number of times the integer registers were read (Count)
system.cpu.executeStats0.numIntRegWrites   2700412105                       # Number of times the integer registers were written (Count)
system.cpu.executeStats0.numMemRefs         663676127                       # Number of memory refs (Count)
system.cpu.executeStats0.numMiscRegReads   1458992196                       # Number of times the Misc registers were read (Count)
system.cpu.executeStats0.numMiscRegWrites          693                       # Number of times the Misc registers were written (Count)
system.cpu.executeStats0.numVecAluAccesses            0                       # Number of vector alu accesses (Count)
system.cpu.executeStats0.numDiscardedOps            0                       # Number of ops (including micro ops) which were discarded before commit (Count)
system.cpu.fetch.predictedBranches          209204505                       # Number of branches that fetch has predicted taken (Count)
system.cpu.fetch.cycles                    1385156161                       # Number of cycles fetch has run and was not squashing or blocked (Cycle)
system.cpu.fetch.squashCycles                12690460                       # Number of cycles fetch has spent squashing (Cycle)
system.cpu.fetch.tlbCycles                          1                       # Number of cycles fetch has spent waiting for tlb (Cycle)
system.cpu.fetch.miscStallCycles                  436                       # Number of cycles fetch has spent waiting on interrupts, or bad addresses, or out of MSHRs (Cycle)
system.cpu.fetch.pendingTrapStallCycles          3859                       # Number of stall cycles due to pending traps (Cycle)
[...]
system.mem_ctrl.dram.bytesWritten::total      7477824                       # Number of bytes written to this memory (Byte)
system.mem_ctrl.dram.numReads::cpu.inst          2637                       # Number of read requests responded to by this memory (Count)
system.mem_ctrl.dram.numReads::cpu.data        224890                       # Number of read requests responded to by this memory (Count)
system.mem_ctrl.dram.numReads::total           227527                       # Number of read requests responded to by this memory (Count)
system.mem_ctrl.dram.numWrites::writebacks       116841                       # Number of write requests responded to by this memory (Count)
system.mem_ctrl.dram.numWrites::total          116841                       # Number of write requests responded to by this memory (Count)
system.mem_ctrl.dram.bwRead::cpu.inst         1345253                       # Total read bandwidth from this memory ((Byte/Second))
system.mem_ctrl.dram.bwRead::cpu.data       114726588                       # Total read bandwidth from this memory ((Byte/Second))
system.mem_ctrl.dram.bwRead::total          116071842                       # Total read bandwidth from this memory ((Byte/Second))
system.mem_ctrl.dram.bwInstRead::cpu.inst      1345253                       # Instruction read bandwidth from this memory ((Byte/Second))
system.mem_ctrl.dram.bwInstRead::total        1345253                       # Instruction read bandwidth from this memory ((Byte/Second))
system.mem_ctrl.dram.bwWrite::writebacks     59605893                       # Write bandwidth from this memory ((Byte/Second))
system.mem_ctrl.dram.bwWrite::total          59605893                       # Write bandwidth from this memory ((Byte/Second))
system.mem_ctrl.dram.bwTotal::writebacks     59605893                       # Total bandwidth to/from this memory ((Byte/Second))
system.mem_ctrl.dram.bwTotal::cpu.inst        1345253                       # Total bandwidth to/from this memory ((Byte/Second))
system.mem_ctrl.dram.bwTotal::cpu.data      114726588                       # Total bandwidth to/from this memory ((Byte/Second))
system.mem_ctrl.dram.bwTotal::total         175677735                       # Total bandwidth to/from this memory ((Byte/Second))
system.mem_ctrl.dram.readBursts                227482                       # Number of DRAM read bursts (Count)
system.mem_ctrl.dram.writeBursts               116844                       # Number of DRAM write bursts (Count)
system.mem_ctrl.dram.perBankRdBursts::0         14579                       # Per bank write bursts (Count)
system.mem_ctrl.dram.perBankRdBursts::1         14534                       # Per bank write bursts (Count)
system.mem_ctrl.dram.perBankRdBursts::2         14292                       # Per bank write bursts (Count)
system.mem_ctrl.dram.perBankRdBursts::3         13801                       # Per bank write bursts (Count)
system.mem_ctrl.dram.perBankRdBursts::4         14526                       # Per bank write bursts (Count)
system.mem_ctrl.dram.perBankRdBursts::5         14318                       # Per bank write bursts (Count)
system.mem_ctrl.dram.perBankRdBursts::6         14059                       # Per bank write bursts (Count)
system.mem_ctrl.dram.perBankRdBursts::7         14020                       # Per bank write bursts (Count)
system.mem_ctrl.dram.perBankRdBursts::8         13945                       # Per bank write bursts (Count)
system.mem_ctrl.dram.perBankRdBursts::9         14413                       # Per bank write bursts (Count)
system.mem_ctrl.dram.perBankRdBursts::10        14011                       # Per bank write bursts (Count)
system.mem_ctrl.dram.perBankRdBursts::11        14128                       # Per bank write bursts (Count)
system.mem_ctrl.dram.perBankRdBursts::12        14220                       # Per bank write bursts (Count)
system.mem_ctrl.dram.perBankRdBursts::13        14249                       # Per bank write bursts (Count)
system.mem_ctrl.dram.perBankRdBursts::14        14182                       # Per bank write bursts (Count)
system.mem_ctrl.dram.perBankRdBursts::15        14205                       # Per bank write bursts (Count)
system.mem_ctrl.dram.perBankWrBursts::0          7489                       # Per bank write bursts (Count)
system.mem_ctrl.dram.perBankWrBursts::1          7414                       # Per bank write bursts (Count)
system.mem_ctrl.dram.perBankWrBursts::2          7384                       # Per bank write bursts (Count)
system.mem_ctrl.dram.perBankWrBursts::3          7143                       # Per bank write bursts (Count)
system.mem_ctrl.dram.perBankWrBursts::4          7512                       # Per bank write bursts (Count)
system.mem_ctrl.dram.perBankWrBursts::5          7186                       # Per bank write bursts (Count)
system.mem_ctrl.dram.perBankWrBursts::6          7222                       # Per bank write bursts (Count)
system.mem_ctrl.dram.perBankWrBursts::7          7188                       # Per bank write bursts (Count)
system.mem_ctrl.dram.perBankWrBursts::8          7192                       # Per bank write bursts (Count)
system.mem_ctrl.dram.perBankWrBursts::9          7325                       # Per bank write bursts (Count)
system.mem_ctrl.dram.perBankWrBursts::10         7186                       # Per bank write bursts (Count)
system.mem_ctrl.dram.perBankWrBursts::11         7190                       # Per bank write bursts (Count)
system.mem_ctrl.dram.perBankWrBursts::12         7435                       # Per bank write bursts (Count)
system.mem_ctrl.dram.perBankWrBursts::13         7316                       # Per bank write bursts (Count)
system.mem_ctrl.dram.perBankWrBursts::14         7322                       # Per bank write bursts (Count)
system.mem_ctrl.dram.perBankWrBursts::15         7340                       # Per bank write bursts (Count)
system.mem_ctrl.dram.totQLat               2306709000                       # Total ticks spent queuing (Tick)
system.mem_ctrl.dram.totBusLat             1137410000                       # Total ticks spent in databus transfers (Tick)
system.mem_ctrl.dram.totMemAccLat          6571996500                       # Total ticks spent from burst creation until serviced by the DRAM (Tick)
system.mem_ctrl.dram.avgQLat                 10140.18                       # Average queueing delay per DRAM burst ((Tick/Count))
system.mem_ctrl.dram.avgBusLat                5000.00                       # Average bus latency per DRAM burst ((Tick/Count))
system.mem_ctrl.dram.avgMemAccLat            28890.18                       # Average memory access latency per DRAM burst ((Tick/Count))
system.mem_ctrl.dram.readRowHits               177235                       # Number of row buffer hits during reads (Count)
system.mem_ctrl.dram.writeRowHits              107362                       # Number of row buffer hits during writes (Count)
system.mem_ctrl.dram.readRowHitRate             77.91                       # Row buffer hit rate for reads (Ratio)
system.mem_ctrl.dram.writeRowHitRate            91.88                       # Row buffer hit rate for writes (Ratio)
system.mem_ctrl.dram.bytesPerActivate::samples        59729                       # Bytes accessed per row activation (Byte)
system.mem_ctrl.dram.bytesPerActivate::mean   368.938907                       # Bytes accessed per row activation (Byte)
system.mem_ctrl.dram.bytesPerActivate::gmean   177.207478                       # Bytes accessed per row activation (Byte)
system.mem_ctrl.dram.bytesPerActivate::stdev   415.424458                       # Bytes accessed per row activation (Byte)
system.mem_ctrl.dram.bytesPerActivate::0-127        30498     51.06%     51.06% # Bytes accessed per row activation (Byte)
system.mem_ctrl.dram.bytesPerActivate::128-255         7804     13.07%     64.13% # Bytes accessed per row activation (Byte)
system.mem_ctrl.dram.bytesPerActivate::256-383         1173      1.96%     66.09% # Bytes accessed per row activation (Byte)
system.mem_ctrl.dram.bytesPerActivate::384-511         1611      2.70%     68.79% # Bytes accessed per row activation (Byte)
system.mem_ctrl.dram.bytesPerActivate::512-639         1048      1.75%     70.54% # Bytes accessed per row activation (Byte)
system.mem_ctrl.dram.bytesPerActivate::640-767          905      1.52%     72.06% # Bytes accessed per row activation (Byte)
system.mem_ctrl.dram.bytesPerActivate::768-895          729      1.22%     73.28% # Bytes accessed per row activation (Byte)
system.mem_ctrl.dram.bytesPerActivate::896-1023          706      1.18%     74.46% # Bytes accessed per row activation (Byte)
system.mem_ctrl.dram.bytesPerActivate::1024-1151        15255     25.54%    100.00% # Bytes accessed per row activation (Byte)
system.mem_ctrl.dram.bytesPerActivate::total        59729                       # Bytes accessed per row activation (Byte)
system.mem_ctrl.dram.dramBytesRead           14558848                       # Total bytes read (Byte)
system.mem_ctrl.dram.dramBytesWritten         7478016                       # Total bytes written (Byte)
system.mem_ctrl.dram.avgRdBW               116.048885                       # Average DRAM read bandwidth in MiBytes/s ((Byte/Second))
system.mem_ctrl.dram.avgWrBW                59.607424                       # Average DRAM write bandwidth in MiBytes/s ((Byte/Second))
system.mem_ctrl.dram.peakBW                  12800.00                       # Theoretical peak bandwidth in MiByte/s ((Byte/Second))
system.mem_ctrl.dram.busUtil                     1.37                       # Data bus utilization in percentage (Ratio)
system.mem_ctrl.dram.busUtilRead                 0.91                       # Data bus utilization in percentage for reads (Ratio)
system.mem_ctrl.dram.busUtilWrite                0.47                       # Data bus utilization in percentage for writes (Ratio)
system.mem_ctrl.dram.pageHitRate                82.65                       # Row buffer hit rate, read and write combined (Ratio)
system.mem_ctrl.dram.power_state.pwrStateResidencyTicks::UNDEFINED 125454441000                       # Cumulative time (in ticks) in various power states (Tick)
system.mem_ctrl.dram.rank0.actEnergy        213150420                       # Energy for activate commands per rank (pJ) (Joule)
system.mem_ctrl.dram.rank0.preEnergy        113288340                       # Energy for precharge commands per rank (pJ) (Joule)
system.mem_ctrl.dram.rank0.readEnergy       814881060                       # Energy for read commands per rank (pJ) (Joule)
system.mem_ctrl.dram.rank0.writeEnergy      305568360                       # Energy for write commands per rank (pJ) (Joule)
system.mem_ctrl.dram.rank0.refreshEnergy 9903079680.000002                       # Energy for refresh commands per rank (pJ) (Joule)
system.mem_ctrl.dram.rank0.actBackEnergy  31213723830                       # Energy for active background per rank (pJ) (Joule)
system.mem_ctrl.dram.rank0.preBackEnergy  21889263840                       # Energy for precharge background per rank (pJ) (Joule)
system.mem_ctrl.dram.rank0.actPowerDownEnergy            0                       # Energy for active power-down per rank (pJ) (Joule)
system.mem_ctrl.dram.rank0.prePowerDownEnergy            0                       # Energy for precharge power-down per rank (pJ) (Joule)
system.mem_ctrl.dram.rank0.selfRefreshEnergy            0                       # Energy for self refresh per rank (pJ) (Joule)
system.mem_ctrl.dram.rank0.totalEnergy    64452955530                       # Total energy per rank (pJ) (Joule)
system.mem_ctrl.dram.rank0.averagePower    513.755870                       # Core power per rank (mW) (Watt)
system.mem_ctrl.dram.rank0.totalIdleTime            0                       # Total Idle time Per DRAM Rank (Tick)
system.mem_ctrl.dram.rank0.pwrStateTime::IDLE  56555076750                       # Time in different power states (Tick)
system.mem_ctrl.dram.rank0.pwrStateTime::REF   4189120000                       # Time in different power states (Tick)
system.mem_ctrl.dram.rank0.pwrStateTime::SREF            0                       # Time in different power states (Tick)
system.mem_ctrl.dram.rank0.pwrStateTime::PRE_PDN            0                       # Time in different power states (Tick)
system.mem_ctrl.dram.rank0.pwrStateTime::ACT  64710244250                       # Time in different power states (Tick)
system.mem_ctrl.dram.rank0.pwrStateTime::ACT_PDN            0                       # Time in different power states (Tick)
system.mem_ctrl.dram.rank1.actEnergy        213314640                       # Energy for activate commands per rank (pJ) (Joule)
system.mem_ctrl.dram.rank1.preEnergy        113383215                       # Energy for precharge commands per rank (pJ) (Joule)
system.mem_ctrl.dram.rank1.readEnergy       809347560                       # Energy for read commands per rank (pJ) (Joule)
system.mem_ctrl.dram.rank1.writeEnergy      304357320                       # Energy for write commands per rank (pJ) (Joule)
system.mem_ctrl.dram.rank1.refreshEnergy 9903079680.000002                       # Energy for refresh commands per rank (pJ) (Joule)
system.mem_ctrl.dram.rank1.actBackEnergy  31300710960                       # Energy for active background per rank (pJ) (Joule)
system.mem_ctrl.dram.rank1.preBackEnergy  21816011520                       # Energy for precharge background per rank (pJ) (Joule)
system.mem_ctrl.dram.rank1.actPowerDownEnergy            0                       # Energy for active power-down per rank (pJ) (Joule)
system.mem_ctrl.dram.rank1.prePowerDownEnergy            0                       # Energy for precharge power-down per rank (pJ) (Joule)
system.mem_ctrl.dram.rank1.selfRefreshEnergy            0                       # Energy for self refresh per rank (pJ) (Joule)
system.mem_ctrl.dram.rank1.totalEnergy    64460204895                       # Total energy per rank (pJ) (Joule)
system.mem_ctrl.dram.rank1.averagePower    513.813655                       # Core power per rank (mW) (Watt)
system.mem_ctrl.dram.rank1.totalIdleTime            0                       # Total Idle time Per DRAM Rank (Tick)
system.mem_ctrl.dram.rank1.pwrStateTime::IDLE  56364820750                       # Time in different power states (Tick)
system.mem_ctrl.dram.rank1.pwrStateTime::REF   4189120000                       # Time in different power states (Tick)
system.mem_ctrl.dram.rank1.pwrStateTime::SREF            0                       # Time in different power states (Tick)
system.mem_ctrl.dram.rank1.pwrStateTime::PRE_PDN            0                       # Time in different power states (Tick)
system.mem_ctrl.dram.rank1.pwrStateTime::ACT  64900500250                       # Time in different power states (Tick)
system.mem_ctrl.dram.rank1.pwrStateTime::ACT_PDN            0                       # Time in different power states (Tick)
system.mem_ctrl.power_state.pwrStateResidencyTicks::UNDEFINED 125454441000                       # Cumulative time (in ticks) in various power states (Tick)
system.membus.transDist::ReadResp              111070                       # Transaction distribution (Count)
system.membus.transDist::WritebackDirty        116841                       # Transaction distribution (Count)
system.membus.transDist::CleanEvict            110697                       # Transaction distribution (Count)
system.membus.transDist::ReadExReq             116457                       # Transaction distribution (Count)
system.membus.transDist::ReadExResp            116457                       # Transaction distribution (Count)
system.membus.transDist::ReadSharedReq         111068                       # Transaction distribution (Count)
system.membus.pktCount_system.l2_cache.mem_side_port::system.mem_ctrl.port       682590                       # Packet count per connected requestor and responder (Count)
system.membus.pktCount_system.l2_cache.mem_side_port::total       682590                       # Packet count per connected requestor and responder (Count)
system.membus.pktCount::total                  682590                       # Packet count per connected requestor and responder (Count)
system.membus.pktSize_system.l2_cache.mem_side_port::system.mem_ctrl.port     22039552                       # Cumulative packet size per connected requestor and responder (Byte)
system.membus.pktSize_system.l2_cache.mem_side_port::total     22039552                       # Cumulative packet size per connected requestor and responder (Byte)
system.membus.pktSize::total                 22039552                       # Cumulative packet size per connected requestor and responder (Byte)
system.membus.snoops                                0                       # Total snoops (Count)
system.membus.snoopTraffic                          0                       # Total snoop traffic (Byte)
system.membus.snoopFanout::samples             227525                       # Request fanout histogram (Count)
system.membus.snoopFanout::mean                     0                       # Request fanout histogram (Count)
system.membus.snoopFanout::stdev                    0                       # Request fanout histogram (Count)
system.membus.snoopFanout::underflows               0      0.00%      0.00% # Request fanout histogram (Count)
system.membus.snoopFanout::0                   227525    100.00%    100.00% # Request fanout histogram (Count)
system.membus.snoopFanout::1                        0      0.00%    100.00% # Request fanout histogram (Count)
system.membus.snoopFanout::overflows                0      0.00%    100.00% # Request fanout histogram (Count)
system.membus.snoopFanout::min_value                0                       # Request fanout histogram (Count)
system.membus.snoopFanout::max_value                0                       # Request fanout histogram (Count)
system.membus.snoopFanout::total               227525                       # Request fanout histogram (Count)
system.membus.power_state.pwrStateResidencyTicks::UNDEFINED 125454441000                       # Cumulative time (in ticks) in various power states (Tick)
system.membus.reqLayer2.occupancy           922427000                       # Layer occupancy (ticks) (Tick)
system.membus.reqLayer2.utilization               0.0                       # Layer utilization (Ratio)
system.membus.respLayer2.occupancy         1209303250                       # Layer occupancy (ticks) (Tick)
system.membus.respLayer2.utilization              0.0                       # Layer utilization (Ratio)
system.membus.snoop_filter.totRequests         455063                       # Total number of requests made to the snoop filter. (Count)
system.membus.snoop_filter.hitSingleRequests       227538                       # Number of requests hitting in the snoop filter with a single holder of the requested data. (Count)
system.membus.snoop_filter.hitMultiRequests            0                       # Number of requests hitting in the snoop filter with multiple (>1) holders of the requested data. (Count)
system.membus.snoop_filter.totSnoops                0                       # Total number of snoops made to the snoop filter. (Count)
system.membus.snoop_filter.hitSingleSnoops            0                       # Number of snoops hitting in the snoop filter with a single holder of the requested data. (Count)
system.membus.snoop_filter.hitMultiSnoops            0                       # Number of snoops hitting in the snoop filter with multiple (>1) holders of the requested data. (Count)
system.workload.inst.arm                            0                       # number of arm instructions executed (Count)
system.workload.inst.quiesce                        0                       # number of quiesce instructions executed (Count)

---------- End Simulation Statistics   ----------
