
---------- Begin Simulation Statistics ----------
simSeconds                                   1.010310                       # Number of seconds simulated (Second)
simTicks                                 1010310494000                       # Number of ticks simulated (Tick)
finalTick                                1010310494000                       # Number of ticks from beginning of simulation (restored from checkpoints and never reset) (Tick)
simFreq                                  1000000000000                       # The number of ticks per simulated second ((Tick/Second))
hostSeconds                                   4253.13                       # Real time elapsed on the host (Second)
hostTickRate                                237545142                       # The number of ticks simulated per host second (ticks/s) ((Tick/Second))
hostMemory                                    8997152                       # Number of bytes of host memory used (Byte)
simInsts                                    634616459                       # Number of instructions simulated (Count)
simOps                                     1452014498                       # Number of ops (including micro ops) simulated (Count)
hostInstRate                                   149212                       # Simulator instruction rate (inst/s) ((Count/Second))
hostOpRate                                     341399                       # Simulator op (including micro ops) rate (op/s) ((Count/Second))
system.clk_domain.clock                          1000                       # Clock period in ticks (Tick)
system.clk_domain.voltage_domain.voltage            1                       # Voltage in Volts (Volt)
system.cpu.numCycles                       1010310495                       # Number of cpu cycles simulated (Cycle)
system.cpu.cpi                               1.592002                       # CPI: cycles per instruction (core level) ((Cycle/Count))
system.cpu.ipc                               0.628140                       # IPC: instructions per cycle (core level) ((Count/Cycle))
system.cpu.numWorkItemsStarted                      0                       # Number of work items this cpu started (Count)
system.cpu.numWorkItemsCompleted                    0                       # Number of work items this cpu completed (Count)
system.cpu.instsAdded                      1880269213                       # Number of instructions added to the IQ (excludes non-spec) (Count)
system.cpu.nonSpecInstsAdded                     9884                       # Number of non-speculative instructions added to the IQ (Count)
system.cpu.instsIssued                     1665389879                       # Number of instructions issued (Count)
system.cpu.squashedInstsIssued                 821228                       # Number of squashed instructions issued (Count)
system.cpu.squashedInstsExamined            428264577                       # Number of squashed instructions iterated over during squash; mainly for profiling (Count)
system.cpu.squashedOperandsExamined        1090306279                       # Number of squashed operands that are examined and possibly removed from graph (Count)
system.cpu.squashedNonSpecRemoved                3213                       # Number of squashed non-spec instructions that were removed (Count)
system.cpu.numIssuedDist::samples          1004111040                       # Number of insts issued each cycle (Count)
system.cpu.numIssuedDist::mean               1.658571                       # Number of insts issued each cycle (Count)
system.cpu.numIssuedDist::stdev              2.182376                       # Number of insts issued each cycle (Count)
system.cpu.numIssuedDist::underflows                0      0.00%      0.00% # Number of insts issued each cycle (Count)
system.cpu.numIssuedDist::0                 512917069     51.08%     51.08% # Number of insts issued each cycle (Count)
system.cpu.numIssuedDist::1                 114986244     11.45%     62.53% # Number of insts issued each cycle (Count)
system.cpu.numIssuedDist::2                  76210856      7.59%     70.12% # Number of insts issued each cycle (Count)
system.cpu.numIssuedDist::3                  68517633      6.82%     76.95% # Number of insts issued each cycle (Count)
system.cpu.numIssuedDist::4                 102583523     10.22%     87.16% # Number of insts issued each cycle (Count)
system.cpu.numIssuedDist::5                  43875508      4.37%     91.53% # Number of insts issued each cycle (Count)
system.cpu.numIssuedDist::6                  45085284      4.49%     96.02% # Number of insts issued each cycle (Count)
system.cpu.numIssuedDist::7                  27273696      2.72%     98.74% # Number of insts issued each cycle (Count)
system.cpu.numIssuedDist::8                  12661227      1.26%    100.00% # Number of insts issued each cycle (Count)
system.cpu.numIssuedDist::overflows                 0      0.00%    100.00% # Number of insts issued each cycle (Count)
system.cpu.numIssuedDist::min_value                 0                       # Number of insts issued each cycle (Count)
system.cpu.numIssuedDist::max_value                 8                       # Number of insts issued each cycle (Count)
system.cpu.numIssuedDist::total            1004111040                       # Number of insts issued each cycle (Count)
system.cpu.statFuBusy::No_OpClass                   0      0.00%      0.00% # attempts to use FU when none available (Count)
system.cpu.statFuBusy::IntAlu                24463257     88.31%     88.31% # attempts to use FU when none available (Count)
system.cpu.statFuBusy::IntMult                      0      0.00%     88.31% # attempts to use FU when none available (Count)
system.cpu.statFuBusy::IntDiv                       0      0.00%     88.31% # attempts to use FU when none available (Count)
system.cpu.statFuBusy::FloatAdd                     0      0.00%     88.31% # attempts to use FU when none available (Count)
system.cpu.statFuBusy::FloatCmp                     0      0.00%     88.31% # attempts to use FU when none available (Count)
system.cpu.statFuBusy::FloatCvt                     0      0.00%     88.31% # attempts to use FU when none available (Count)
system.cpu.statFuBusy::FloatMult                    0      0.00%     88.31% # attempts to use FU when none available (Count)
system.cpu.statFuBusy::FloatMultAcc                 0      0.00%     88.31% # attempts to use FU when none available (Count)
system.cpu.statFuBusy::FloatDiv                     0      0.00%     88.31% # attempts to use FU when none available (Count)
system.cpu.statFuBusy::FloatMisc                    0      0.00%     88.31% # attempts to use FU when none available (Count)
system.cpu.statFuBusy::FloatSqrt                    0      0.00%     88.31% # attempts to use FU when none available (Count)
system.cpu.statFuBusy::SimdAdd                     53      0.00%     88.31% # attempts to use FU when none available (Count)
system.cpu.statFuBusy::SimdAddAcc                   0      0.00%     88.31% # attempts to use FU when none available (Count)
system.cpu.statFuBusy::SimdAlu                 412589      1.49%     89.80% # attempts to use FU when none available (Count)
system.cpu.statFuBusy::SimdCmp                      0      0.00%     89.80% # attempts to use FU when none available (Count)
system.cpu.statFuBusy::SimdCvt                  10292      0.04%     89.83% # attempts to use FU when none available (Count)
system.cpu.statFuBusy::SimdMisc                 16018      0.06%     89.89% # attempts to use FU when none available (Count)
system.cpu.statFuBusy::SimdMult                     0      0.00%     89.89% # attempts to use FU when none available (Count)
system.cpu.statFuBusy::SimdMultAcc                  0      0.00%     89.89% # attempts to use FU when none available (Count)
system.cpu.statFuBusy::SimdMatMultAcc               0      0.00%     89.89% # attempts to use FU when none available (Count)
system.cpu.statFuBusy::SimdShift                15318      0.06%     89.95% # attempts to use FU when none available (Count)
system.cpu.statFuBusy::SimdShiftAcc                 0      0.00%     89.95% # attempts to use FU when none available (Count)
system.cpu.statFuBusy::SimdDiv                      0      0.00%     89.95% # attempts to use FU when none available (Count)
system.cpu.statFuBusy::SimdSqrt                     0      0.00%     89.95% # attempts to use FU when none available (Count)
system.cpu.statFuBusy::SimdFloatAdd                 0      0.00%     89.95% # attempts to use FU when none available (Count)
system.cpu.statFuBusy::SimdFloatAlu                 0      0.00%     89.95% # attempts to use FU when none available (Count)
system.cpu.statFuBusy::SimdFloatCmp                 0      0.00%     89.95% # attempts to use FU when none available (Count)
system.cpu.statFuBusy::SimdFloatCvt                 0      0.00%     89.95% # attempts to use FU when none available (Count)
system.cpu.statFuBusy::SimdFloatDiv                 0      0.00%     89.95% # attempts to use FU when none available (Count)
system.cpu.statFuBusy::SimdFloatMisc                0      0.00%     89.95% # attempts to use FU when none available (Count)
system.cpu.statFuBusy::SimdFloatMult                0      0.00%     89.95% # attempts to use FU when none available (Count)
system.cpu.statFuBusy::SimdFloatMultAcc             0      0.00%     89.95% # attempts to use FU when none available (Count)
system.cpu.statFuBusy::SimdFloatMatMultAcc            0      0.00%     89.95% # attempts to use FU when none available (Count)
system.cpu.statFuBusy::SimdFloatSqrt                0      0.00%     89.95% # attempts to use FU when none available (Count)
system.cpu.statFuBusy::SimdReduceAdd                0      0.00%     89.95% # attempts to use FU when none available (Count)
system.cpu.statFuBusy::SimdReduceAlu                0      0.00%     89.95% # attempts to use FU when none available (Count)
system.cpu.statFuBusy::SimdReduceCmp                0      0.00%     89.95% # attempts to use FU when none available (Count)
system.cpu.statFuBusy::SimdFloatReduceAdd            0      0.00%     89.95% # attempts to use FU when none available (Count)
system.cpu.statFuBusy::SimdFloatReduceCmp            0      0.00%     89.95% # attempts to use FU when none available (Count)
system.cpu.statFuBusy::SimdAes                      0      0.00%     89.95% # attempts to use FU when none available (Count)
system.cpu.statFuBusy::SimdAesMix                   0      0.00%     89.95% # attempts to use FU when none available (Count)
system.cpu.statFuBusy::SimdSha1Hash                 0      0.00%     89.95% # attempts to use FU when none available (Count)
system.cpu.statFuBusy::SimdSha1Hash2                0      0.00%     89.95% # attempts to use FU when none available (Count)
system.cpu.statFuBusy::SimdSha256Hash               0      0.00%     89.95% # attempts to use FU when none available (Count)
system.cpu.statFuBusy::SimdSha256Hash2              0      0.00%     89.95% # attempts to use FU when none available (Count)
system.cpu.statFuBusy::SimdShaSigma2                0      0.00%     89.95% # attempts to use FU when none available (Count)
system.cpu.statFuBusy::SimdShaSigma3                0      0.00%     89.95% # attempts to use FU when none available (Count)
system.cpu.statFuBusy::SimdPredAlu                  0      0.00%     89.95% # attempts to use FU when none available (Count)
system.cpu.statFuBusy::Matrix                       0      0.00%     89.95% # attempts to use FU when none available (Count)
system.cpu.statFuBusy::MatrixMov                    0      0.00%     89.95% # attempts to use FU when none available (Count)
system.cpu.statFuBusy::MatrixOP                     0      0.00%     89.95% # attempts to use FU when none available (Count)
system.cpu.statFuBusy::MemRead                1430482      5.16%     95.11% # attempts to use FU when none available (Count)
system.cpu.statFuBusy::MemWrite                639888      2.31%     97.42% # attempts to use FU when none available (Count)
system.cpu.statFuBusy::FloatMemRead            312938      1.13%     98.55% # attempts to use FU when none available (Count)
system.cpu.statFuBusy::FloatMemWrite           401865      1.45%    100.00% # attempts to use FU when none available (Count)
system.cpu.statFuBusy::IprAccess                    0      0.00%    100.00% # attempts to use FU when none available (Count)
system.cpu.statFuBusy::InstPrefetch                 0      0.00%    100.00% # attempts to use FU when none available (Count)
system.cpu.statFuBusy::SimdUnitStrideLoad            0      0.00%    100.00% # attempts to use FU when none available (Count)
system.cpu.statFuBusy::SimdUnitStrideStore            0      0.00%    100.00% # attempts to use FU when none available (Count)
system.cpu.statFuBusy::SimdUnitStrideMaskLoad            0      0.00%    100.00% # attempts to use FU when none available (Count)
system.cpu.statFuBusy::SimdUnitStrideMaskStore            0      0.00%    100.00% # attempts to use FU when none available (Count)
system.cpu.statFuBusy::SimdStridedLoad              0      0.00%    100.00% # attempts to use FU when none available (Count)
system.cpu.statFuBusy::SimdStridedStore             0      0.00%    100.00% # attempts to use FU when none available (Count)
system.cpu.statFuBusy::SimdIndexedLoad              0      0.00%    100.00% # attempts to use FU when none available (Count)
system.cpu.statFuBusy::SimdIndexedStore             0      0.00%    100.00% # attempts to use FU when none available (Count)
system.cpu.statFuBusy::SimdWholeRegisterLoad            0      0.00%    100.00% # attempts to use FU when none available (Count)
system.cpu.statFuBusy::SimdWholeRegisterStore            0      0.00%    100.00% # attempts to use FU when none available (Count)
system.cpu.statFuBusy::SimdUnitStrideFaultOnlyFirstLoad            0      0.00%    100.00% # attempts to use FU when none available (Count)
system.cpu.statFuBusy::SimdUnitStrideSegmentedLoad            0      0.00%    100.00% # attempts to use FU when none available (Count)
system.cpu.statFuBusy::SimdUnitStrideSegmentedStore            0      0.00%    100.00% # attempts to use FU when none available (Count)
system.cpu.statFuBusy::SimdExt                      0      0.00%    100.00% # attempts to use FU when none available (Count)
system.cpu.statFuBusy::SimdFloatExt                 0      0.00%    100.00% # attempts to use FU when none available (Count)
system.cpu.statFuBusy::SimdConfig                   0      0.00%    100.00% # attempts to use FU when none available (Count)
system.cpu.statIssuedInstType_0::No_OpClass     29157857      1.75%      1.75% # Number of instructions issued per FU type, per thread (Count)
system.cpu.statIssuedInstType_0::IntAlu    1241088080     74.52%     76.27% # Number of instructions issued per FU type, per thread (Count)
system.cpu.statIssuedInstType_0::IntMult          396      0.00%     76.27% # Number of instructions issued per FU type, per thread (Count)
system.cpu.statIssuedInstType_0::IntDiv      24949115      1.50%     77.77% # Number of instructions issued per FU type, per thread (Count)
system.cpu.statIssuedInstType_0::FloatAdd      2283381      0.14%     77.91% # Number of instructions issued per FU type, per thread (Count)
system.cpu.statIssuedInstType_0::FloatCmp            0      0.00%     77.91% # Number of instructions issued per FU type, per thread (Count)
system.cpu.statIssuedInstType_0::FloatCvt         1258      0.00%     77.91% # Number of instructions issued per FU type, per thread (Count)
system.cpu.statIssuedInstType_0::FloatMult            0      0.00%     77.91% # Number of instructions issued per FU type, per thread (Count)
system.cpu.statIssuedInstType_0::FloatMultAcc            0      0.00%     77.91% # Number of instructions issued per FU type, per thread (Count)
system.cpu.statIssuedInstType_0::FloatDiv            0      0.00%     77.91% # Number of instructions issued per FU type, per thread (Count)
system.cpu.statIssuedInstType_0::FloatMisc            0      0.00%     77.91% # Number of instructions issued per FU type, per thread (Count)
system.cpu.statIssuedInstType_0::FloatSqrt            0      0.00%     77.91% # Number of instructions issued per FU type, per thread (Count)
system.cpu.statIssuedInstType_0::SimdAdd      1551317      0.09%     78.00% # Number of instructions issued per FU type, per thread (Count)
system.cpu.statIssuedInstType_0::SimdAddAcc            0      0.00%     78.00% # Number of instructions issued per FU type, per thread (Count)
system.cpu.statIssuedInstType_0::SimdAlu     10671539      0.64%     78.64% # Number of instructions issued per FU type, per thread (Count)
system.cpu.statIssuedInstType_0::SimdCmp         4456      0.00%     78.64% # Number of instructions issued per FU type, per thread (Count)
system.cpu.statIssuedInstType_0::SimdCvt      5457383      0.33%     78.97% # Number of instructions issued per FU type, per thread (Count)
system.cpu.statIssuedInstType_0::SimdMisc      4721945      0.28%     79.25% # Number of instructions issued per FU type, per thread (Count)
system.cpu.statIssuedInstType_0::SimdMult            0      0.00%     79.25% # Number of instructions issued per FU type, per thread (Count)
system.cpu.statIssuedInstType_0::SimdMultAcc            0      0.00%     79.25% # Number of instructions issued per FU type, per thread (Count)
system.cpu.statIssuedInstType_0::SimdMatMultAcc            0      0.00%     79.25% # Number of instructions issued per FU type, per thread (Count)
system.cpu.statIssuedInstType_0::SimdShift      1479214      0.09%     79.34% # Number of instructions issued per FU type, per thread (Count)
system.cpu.statIssuedInstType_0::SimdShiftAcc            0      0.00%     79.34% # Number of instructions issued per FU type, per thread (Count)
system.cpu.statIssuedInstType_0::SimdDiv            0      0.00%     79.34% # Number of instructions issued per FU type, per thread (Count)
system.cpu.statIssuedInstType_0::SimdSqrt            0      0.00%     79.34% # Number of instructions issued per FU type, per thread (Count)
system.cpu.statIssuedInstType_0::SimdFloatAdd          120      0.00%     79.34% # Number of instructions issued per FU type, per thread (Count)
system.cpu.statIssuedInstType_0::SimdFloatAlu            0      0.00%     79.34% # Number of instructions issued per FU type, per thread (Count)
system.cpu.statIssuedInstType_0::SimdFloatCmp            0      0.00%     79.34% # Number of instructions issued per FU type, per thread (Count)
system.cpu.statIssuedInstType_0::SimdFloatCvt          647      0.00%     79.34% # Number of instructions issued per FU type, per thread (Count)
system.cpu.statIssuedInstType_0::SimdFloatDiv           57      0.00%     79.34% # Number of instructions issued per FU type, per thread (Count)
system.cpu.statIssuedInstType_0::SimdFloatMisc            0      0.00%     79.34% # Number of instructions issued per FU type, per thread (Count)
system.cpu.statIssuedInstType_0::SimdFloatMult           61      0.00%     79.34% # Number of instructions issued per FU type, per thread (Count)
system.cpu.statIssuedInstType_0::SimdFloatMultAcc            0      0.00%     79.34% # Number of instructions issued per FU type, per thread (Count)
system.cpu.statIssuedInstType_0::SimdFloatMatMultAcc            0      0.00%     79.34% # Number of instructions issued per FU type, per thread (Count)
system.cpu.statIssuedInstType_0::SimdFloatSqrt            0      0.00%     79.34% # Number of instructions issued per FU type, per thread (Count)
system.cpu.statIssuedInstType_0::SimdReduceAdd            0      0.00%     79.34% # Number of instructions issued per FU type, per thread (Count)
system.cpu.statIssuedInstType_0::SimdReduceAlu            0      0.00%     79.34% # Number of instructions issued per FU type, per thread (Count)
system.cpu.statIssuedInstType_0::SimdReduceCmp            0      0.00%     79.34% # Number of instructions issued per FU type, per thread (Count)
system.cpu.statIssuedInstType_0::SimdFloatReduceAdd            0      0.00%     79.34% # Number of instructions issued per FU type, per thread (Count)
system.cpu.statIssuedInstType_0::SimdFloatReduceCmp            0      0.00%     79.34% # Number of instructions issued per FU type, per thread (Count)
system.cpu.statIssuedInstType_0::SimdAes            0      0.00%     79.34% # Number of instructions issued per FU type, per thread (Count)
system.cpu.statIssuedInstType_0::SimdAesMix            0      0.00%     79.34% # Number of instructions issued per FU type, per thread (Count)
system.cpu.statIssuedInstType_0::SimdSha1Hash            0      0.00%     79.34% # Number of instructions issued per FU type, per thread (Count)
system.cpu.statIssuedInstType_0::SimdSha1Hash2            0      0.00%     79.34% # Number of instructions issued per FU type, per thread (Count)
system.cpu.statIssuedInstType_0::SimdSha256Hash            0      0.00%     79.34% # Number of instructions issued per FU type, per thread (Count)
system.cpu.statIssuedInstType_0::SimdSha256Hash2            0      0.00%     79.34% # Number of instructions issued per FU type, per thread (Count)
system.cpu.statIssuedInstType_0::SimdShaSigma2            0      0.00%     79.34% # Number of instructions issued per FU type, per thread (Count)
system.cpu.statIssuedInstType_0::SimdShaSigma3            0      0.00%     79.34% # Number of instructions issued per FU type, per thread (Count)
system.cpu.statIssuedInstType_0::SimdPredAlu            0      0.00%     79.34% # Number of instructions issued per FU type, per thread (Count)
system.cpu.statIssuedInstType_0::Matrix             0      0.00%     79.34% # Number of instructions issued per FU type, per thread (Count)
system.cpu.statIssuedInstType_0::MatrixMov            0      0.00%     79.34% # Number of instructions issued per FU type, per thread (Count)
system.cpu.statIssuedInstType_0::MatrixOP            0      0.00%     79.34% # Number of instructions issued per FU type, per thread (Count)
system.cpu.statIssuedInstType_0::MemRead    164660101      9.89%     89.23% # Number of instructions issued per FU type, per thread (Count)
system.cpu.statIssuedInstType_0::MemWrite    153818118      9.24%     98.47% # Number of instructions issued per FU type, per thread (Count)
system.cpu.statIssuedInstType_0::FloatMemRead     12357117      0.74%     99.21% # Number of instructions issued per FU type, per thread (Count)
system.cpu.statIssuedInstType_0::FloatMemWrite     13187717      0.79%    100.00% # Number of instructions issued per FU type, per thread (Count)
system.cpu.statIssuedInstType_0::IprAccess            0      0.00%    100.00% # Number of instructions issued per FU type, per thread (Count)
system.cpu.statIssuedInstType_0::InstPrefetch            0      0.00%    100.00% # Number of instructions issued per FU type, per thread (Count)
system.cpu.statIssuedInstType_0::SimdUnitStrideLoad            0      0.00%    100.00% # Number of instructions issued per FU type, per thread (Count)
system.cpu.statIssuedInstType_0::SimdUnitStrideStore            0      0.00%    100.00% # Number of instructions issued per FU type, per thread (Count)
system.cpu.statIssuedInstType_0::SimdUnitStrideMaskLoad            0      0.00%    100.00% # Number of instructions issued per FU type, per thread (Count)
system.cpu.statIssuedInstType_0::SimdUnitStrideMaskStore            0      0.00%    100.00% # Number of instructions issued per FU type, per thread (Count)
system.cpu.statIssuedInstType_0::SimdStridedLoad            0      0.00%    100.00% # Number of instructions issued per FU type, per thread (Count)
system.cpu.statIssuedInstType_0::SimdStridedStore            0      0.00%    100.00% # Number of instructions issued per FU type, per thread (Count)
system.cpu.statIssuedInstType_0::SimdIndexedLoad            0      0.00%    100.00% # Number of instructions issued per FU type, per thread (Count)
system.cpu.statIssuedInstType_0::SimdIndexedStore            0      0.00%    100.00% # Number of instructions issued per FU type, per thread (Count)
system.cpu.statIssuedInstType_0::SimdWholeRegisterLoad            0      0.00%    100.00% # Number of instructions issued per FU type, per thread (Count)
system.cpu.statIssuedInstType_0::SimdWholeRegisterStore            0      0.00%    100.00% # Number of instructions issued per FU type, per thread (Count)
system.cpu.statIssuedInstType_0::SimdUnitStrideFaultOnlyFirstLoad            0      0.00%    100.00% # Number of instructions issued per FU type, per thread (Count)
system.cpu.statIssuedInstType_0::SimdUnitStrideSegmentedLoad            0      0.00%    100.00% # Number of instructions issued per FU type, per thread (Count)
system.cpu.statIssuedInstType_0::SimdUnitStrideSegmentedStore            0      0.00%    100.00% # Number of instructions issued per FU type, per thread (Count)
system.cpu.statIssuedInstType_0::SimdExt            0      0.00%    100.00% # Number of instructions issued per FU type, per thread (Count)
system.cpu.statIssuedInstType_0::SimdFloatExt            0      0.00%    100.00% # Number of instructions issued per FU type, per thread (Count)
system.cpu.statIssuedInstType_0::SimdConfig            0      0.00%    100.00% # Number of instructions issued per FU type, per thread (Count)
system.cpu.statIssuedInstType_0::total     1665389879                       # Number of instructions issued per FU type, per thread (Count)
system.cpu.issueRate                         1.648394                       # Inst issue rate ((Count/Cycle))
system.cpu.fuBusy                            27702700                       # FU busy when requested (Count)
system.cpu.fuBusyRate                        0.016634                       # FU busy rate (busy events/executed inst) ((Count/Count))
system.cpu.intInstQueueReads               4253075210                       # Number of integer instruction queue reads (Count)
system.cpu.intInstQueueWrites              2220620157                       # Number of integer instruction queue writes (Count)
system.cpu.intInstQueueWakeupAccesses      1597655056                       # Number of integer instruction queue wakeup accesses (Count)
system.cpu.fpInstQueueReads                 110339516                       # Number of floating instruction queue reads (Count)
system.cpu.fpInstQueueWrites                 87930394                       # Number of floating instruction queue writes (Count)
system.cpu.fpInstQueueWakeupAccesses         52706556                       # Number of floating instruction queue wakeup accesses (Count)
system.cpu.vecInstQueueReads                        0                       # Number of vector instruction queue reads (Count)
system.cpu.vecInstQueueWrites                       0                       # Number of vector instruction queue writes (Count)
system.cpu.vecInstQueueWakeupAccesses               0                       # Number of vector instruction queue wakeup accesses (Count)
system.cpu.intAluAccesses                  1608209071                       # Number of integer alu accesses (Count)
system.cpu.fpAluAccesses                     55725651                       # Number of floating point alu accesses (Count)
system.cpu.vecAluAccesses                           0                       # Number of vector alu accesses (Count)
system.cpu.numSquashedInsts                   8499673                       # Number of squashed instructions skipped in execute (Count)
system.cpu.numSwp                                   0                       # Number of swp insts executed (Count)
system.cpu.timesIdled                          362312                       # Number of times that the entire CPU went into an idle state and unscheduled itself (Count)
system.cpu.idleCycles                         6199455                       # Total number of cycles that the CPU has spent unscheduled due to idling (Cycle)
system.cpu.MemDepUnit__0.insertedLoads      207555268                       # Number of loads inserted to the mem dependence unit. (Count)
system.cpu.MemDepUnit__0.insertedStores     191855210                       # Number of stores inserted to the mem dependence unit. (Count)
system.cpu.MemDepUnit__0.conflictingLoads      9161844                       # Number of conflicting loads. (Count)
system.cpu.MemDepUnit__0.conflictingStores      7617750                       # Number of conflicting stores. (Count)
system.cpu.MemDepUnit__1.insertedLoads              0                       # Number of loads inserted to the mem dependence unit. (Count)
system.cpu.MemDepUnit__1.insertedStores             0                       # Number of stores inserted to the mem dependence unit. (Count)
system.cpu.MemDepUnit__1.conflictingLoads            0                       # Number of conflicting loads. (Count)
system.cpu.MemDepUnit__1.conflictingStores            0                       # Number of conflicting stores. (Count)
system.cpu.MemDepUnit__2.insertedLoads              0                       # Number of loads inserted to the mem dependence unit. (Count)
system.cpu.MemDepUnit__2.insertedStores             0                       # Number of stores inserted to the mem dependence unit. (Count)
system.cpu.MemDepUnit__2.conflictingLoads            0                       # Number of conflicting loads. (Count)
system.cpu.MemDepUnit__2.conflictingStores            0                       # Number of conflicting stores. (Count)
system.cpu.MemDepUnit__3.insertedLoads              0                       # Number of loads inserted to the mem dependence unit. (Count)
system.cpu.MemDepUnit__3.insertedStores             0                       # Number of stores inserted to the mem dependence unit. (Count)
system.cpu.MemDepUnit__3.conflictingLoads            0                       # Number of conflicting loads. (Count)
system.cpu.MemDepUnit__3.conflictingStores            0                       # Number of conflicting stores. (Count)
system.cpu.branchPred.lookups_0::NoBranch       667701      0.24%      0.24% # Number of BP lookups (Count)
system.cpu.branchPred.lookups_0::Return      10718364      3.80%      4.04% # Number of BP lookups (Count)
system.cpu.branchPred.lookups_0::CallDirect     11199633      3.97%      8.02% # Number of BP lookups (Count)
system.cpu.branchPred.lookups_0::CallIndirect         1270      0.00%      8.02% # Number of BP lookups (Count)
system.cpu.branchPred.lookups_0::DirectCond    242452585     86.04%     94.06% # Number of BP lookups (Count)
system.cpu.branchPred.lookups_0::DirectUncond      7361342      2.61%     96.67% # Number of BP lookups (Count)
system.cpu.branchPred.lookups_0::IndirectCond            0      0.00%     96.67% # Number of BP lookups (Count)
system.cpu.branchPred.lookups_0::IndirectUncond      9381148      3.33%    100.00% # Number of BP lookups (Count)
system.cpu.branchPred.lookups_0::total      281782043                       # Number of BP lookups (Count)
system.cpu.branchPred.squashes_0::NoBranch       610570      0.63%      0.63% # Number of branches that got squashed (completely removed) as an earlier branch was mispredicted. (Count)
system.cpu.branchPred.squashes_0::Return      2119546      2.20%      2.83% # Number of branches that got squashed (completely removed) as an earlier branch was mispredicted. (Count)
system.cpu.branchPred.squashes_0::CallDirect      2601413      2.70%      5.54% # Number of branches that got squashed (completely removed) as an earlier branch was mispredicted. (Count)
system.cpu.branchPred.squashes_0::CallIndirect          667      0.00%      5.54% # Number of branches that got squashed (completely removed) as an earlier branch was mispredicted. (Count)
system.cpu.branchPred.squashes_0::DirectCond     86427617     89.74%     95.28% # Number of branches that got squashed (completely removed) as an earlier branch was mispredicted. (Count)
system.cpu.branchPred.squashes_0::DirectUncond      1884555      1.96%     97.23% # Number of branches that got squashed (completely removed) as an earlier branch was mispredicted. (Count)
system.cpu.branchPred.squashes_0::IndirectCond            0      0.00%     97.23% # Number of branches that got squashed (completely removed) as an earlier branch was mispredicted. (Count)
system.cpu.branchPred.squashes_0::IndirectUncond      2664540      2.77%    100.00% # Number of branches that got squashed (completely removed) as an earlier branch was mispredicted. (Count)
system.cpu.branchPred.squashes_0::total      96308908                       # Number of branches that got squashed (completely removed) as an earlier branch was mispredicted. (Count)
system.cpu.branchPred.corrected_0::NoBranch       178991      2.04%      2.04% # Number of branches that got corrected but not yet commited. Branches get corrected by decode or after execute. Also a branch misprediction can be detected out-of-order. Therefore, a corrected branch might not end up beeing committed in case an even earlier branch was mispredicted (Count)
system.cpu.branchPred.corrected_0::Return           17      0.00%      2.04% # Number of branches that got corrected but not yet commited. Branches get corrected by decode or after execute. Also a branch misprediction can be detected out-of-order. Therefore, a corrected branch might not end up beeing committed in case an even earlier branch was mispredicted (Count)
system.cpu.branchPred.corrected_0::CallDirect       154078      1.75%      3.79% # Number of branches that got corrected but not yet commited. Branches get corrected by decode or after execute. Also a branch misprediction can be detected out-of-order. Therefore, a corrected branch might not end up beeing committed in case an even earlier branch was mispredicted (Count)
system.cpu.branchPred.corrected_0::CallIndirect          236      0.00%      3.79% # Number of branches that got corrected but not yet commited. Branches get corrected by decode or after execute. Also a branch misprediction can be detected out-of-order. Therefore, a corrected branch might not end up beeing committed in case an even earlier branch was mispredicted (Count)
system.cpu.branchPred.corrected_0::DirectCond      7557235     85.97%     89.76% # Number of branches that got corrected but not yet commited. Branches get corrected by decode or after execute. Also a branch misprediction can be detected out-of-order. Therefore, a corrected branch might not end up beeing committed in case an even earlier branch was mispredicted (Count)
system.cpu.branchPred.corrected_0::DirectUncond       456437      5.19%     94.95% # Number of branches that got corrected but not yet commited. Branches get corrected by decode or after execute. Also a branch misprediction can be detected out-of-order. Therefore, a corrected branch might not end up beeing committed in case an even earlier branch was mispredicted (Count)
system.cpu.branchPred.corrected_0::IndirectCond            0      0.00%     94.95% # Number of branches that got corrected but not yet commited. Branches get corrected by decode or after execute. Also a branch misprediction can be detected out-of-order. Therefore, a corrected branch might not end up beeing committed in case an even earlier branch was mispredicted (Count)
system.cpu.branchPred.corrected_0::IndirectUncond       443656      5.05%    100.00% # Number of branches that got corrected but not yet commited. Branches get corrected by decode or after execute. Also a branch misprediction can be detected out-of-order. Therefore, a corrected branch might not end up beeing committed in case an even earlier branch was mispredicted (Count)
system.cpu.branchPred.corrected_0::total      8790650                       # Number of branches that got corrected but not yet commited. Branches get corrected by decode or after execute. Also a branch misprediction can be detected out-of-order. Therefore, a corrected branch might not end up beeing committed in case an even earlier branch was mispredicted (Count)
system.cpu.branchPred.earlyResteers_0::NoBranch            0                       # Number of branches that got redirected after decode. (Count)
system.cpu.branchPred.earlyResteers_0::Return            0                       # Number of branches that got redirected after decode. (Count)
system.cpu.branchPred.earlyResteers_0::CallDirect            0                       # Number of branches that got redirected after decode. (Count)
system.cpu.branchPred.earlyResteers_0::CallIndirect            0                       # Number of branches that got redirected after decode. (Count)
system.cpu.branchPred.earlyResteers_0::DirectCond            0                       # Number of branches that got redirected after decode. (Count)
system.cpu.branchPred.earlyResteers_0::DirectUncond            0                       # Number of branches that got redirected after decode. (Count)
system.cpu.branchPred.earlyResteers_0::IndirectCond            0                       # Number of branches that got redirected after decode. (Count)
system.cpu.branchPred.earlyResteers_0::IndirectUncond            0                       # Number of branches that got redirected after decode. (Count)
system.cpu.branchPred.earlyResteers_0::total            0                       # Number of branches that got redirected after decode. (Count)
system.cpu.branchPred.committed_0::NoBranch        57131      0.03%      0.03% # Number of branches finally committed  (Count)
system.cpu.branchPred.committed_0::Return      8598817      4.64%      4.67% # Number of branches finally committed  (Count)
system.cpu.branchPred.committed_0::CallDirect      8598219      4.64%      9.30% # Number of branches finally committed  (Count)
system.cpu.branchPred.committed_0::CallIndirect          603      0.00%      9.30% # Number of branches finally committed  (Count)
system.cpu.branchPred.committed_0::DirectCond    156024968     84.12%     93.43% # Number of branches finally committed  (Count)
system.cpu.branchPred.committed_0::DirectUncond      5476787      2.95%     96.38% # Number of branches finally committed  (Count)
system.cpu.branchPred.committed_0::IndirectCond            0      0.00%     96.38% # Number of branches finally committed  (Count)
system.cpu.branchPred.committed_0::IndirectUncond      6716608      3.62%    100.00% # Number of branches finally committed  (Count)
system.cpu.branchPred.committed_0::total    185473133                       # Number of branches finally committed  (Count)
system.cpu.branchPred.mispredicted_0::NoBranch        57131      0.72%      0.72% # Number of committed branches that were mispredicted. (Count)
system.cpu.branchPred.mispredicted_0::Return            0      0.00%      0.72% # Number of committed branches that were mispredicted. (Count)
system.cpu.branchPred.mispredicted_0::CallDirect       132003      1.66%      2.37% # Number of committed branches that were mispredicted. (Count)
system.cpu.branchPred.mispredicted_0::CallIndirect          203      0.00%      2.38% # Number of committed branches that were mispredicted. (Count)
system.cpu.branchPred.mispredicted_0::DirectCond      7279196     91.35%     93.72% # Number of committed branches that were mispredicted. (Count)
system.cpu.branchPred.mispredicted_0::DirectUncond       125301      1.57%     95.30% # Number of committed branches that were mispredicted. (Count)
system.cpu.branchPred.mispredicted_0::IndirectCond            0      0.00%     95.30% # Number of committed branches that were mispredicted. (Count)
system.cpu.branchPred.mispredicted_0::IndirectUncond       374768      4.70%    100.00% # Number of committed branches that were mispredicted. (Count)
system.cpu.branchPred.mispredicted_0::total      7968602                       # Number of committed branches that were mispredicted. (Count)
system.cpu.branchPred.targetProvider_0::NoTarget     87879751     31.19%     31.19% # The component providing the target for taken branches (Count)
system.cpu.branchPred.targetProvider_0::BTB    175298621     62.21%     93.40% # The component providing the target for taken branches (Count)
system.cpu.branchPred.targetProvider_0::RAS     10718363      3.80%     97.20% # The component providing the target for taken branches (Count)
system.cpu.branchPred.targetProvider_0::Indirect      7885308      2.80%    100.00% # The component providing the target for taken branches (Count)
system.cpu.branchPred.targetProvider_0::total    281782043                       # The component providing the target for taken branches (Count)
system.cpu.branchPred.targetWrong_0::NoBranch      2845140     48.77%     48.77% # Number of branches where the target was incorrect or not available at prediction time. (Count)
system.cpu.branchPred.targetWrong_0::Return      2801720     48.03%     96.80% # Number of branches where the target was incorrect or not available at prediction time. (Count)
system.cpu.branchPred.targetWrong_0::CallDirect           17      0.00%     96.80% # Number of branches where the target was incorrect or not available at prediction time. (Count)
system.cpu.branchPred.targetWrong_0::CallIndirect       186570      3.20%    100.00% # Number of branches where the target was incorrect or not available at prediction time. (Count)
system.cpu.branchPred.targetWrong_0::DirectCond            0      0.00%    100.00% # Number of branches where the target was incorrect or not available at prediction time. (Count)
system.cpu.branchPred.targetWrong_0::DirectUncond            0      0.00%    100.00% # Number of branches where the target was incorrect or not available at prediction time. (Count)
system.cpu.branchPred.targetWrong_0::IndirectCond            0      0.00%    100.00% # Number of branches where the target was incorrect or not available at prediction time. (Count)
system.cpu.branchPred.targetWrong_0::IndirectUncond            0      0.00%    100.00% # Number of branches where the target was incorrect or not available at prediction time. (Count)
system.cpu.branchPred.targetWrong_0::total      5833447                       # Number of branches where the target was incorrect or not available at prediction time. (Count)
system.cpu.branchPred.condPredicted         243120286                       # Number of conditional branches predicted (Count)
system.cpu.branchPred.condPredictedTaken    159767068                       # Number of conditional branches predicted as taken (Count)
system.cpu.branchPred.condIncorrect           8790650                       # Number of conditional branches incorrect (Count)
system.cpu.branchPred.predTakenBTBMiss        1011939                       # Number of branches predicted taken but missed in BTB (Count)
system.cpu.branchPred.NotTakenMispredicted      4395918                       # Number branches predicted 'not taken' but turned out to be taken (Count)
system.cpu.branchPred.TakenMispredicted       4394732                       # Number branches predicted taken but are actually not taken (Count)
system.cpu.branchPred.BTBLookups            281782043                       # Number of BTB lookups (Count)
system.cpu.branchPred.BTBUpdates              3773018                       # Number of BTB updates (Count)
system.cpu.branchPred.BTBHits               225528254                       # Number of BTB hits (Count)
system.cpu.branchPred.BTBHitRatio            0.800364                       # BTB Hit Ratio (Ratio)
system.cpu.branchPred.BTBMispredicted         1113433                       # Number BTB mispredictions. No target found or target wrong (Count)
system.cpu.branchPred.indirectLookups         9382418                       # Number of indirect predictor lookups. (Count)
system.cpu.branchPred.indirectHits            7885308                       # Number of indirect target hits. (Count)
system.cpu.branchPred.indirectMisses          1497110                       # Number of indirect misses. (Count)
system.cpu.branchPred.indirectMispredicted            0                       # Number of mispredicted indirect branches. (Count)
system.cpu.branchPred.btb.lookups::NoBranch       667701      0.24%      0.24% # Number of BTB lookups (Count)
system.cpu.branchPred.btb.lookups::Return     10718364      3.80%      4.04% # Number of BTB lookups (Count)
system.cpu.branchPred.btb.lookups::CallDirect     11199633      3.97%      8.02% # Number of BTB lookups (Count)
system.cpu.branchPred.btb.lookups::CallIndirect         1270      0.00%      8.02% # Number of BTB lookups (Count)
system.cpu.branchPred.btb.lookups::DirectCond    242452585     86.04%     94.06% # Number of BTB lookups (Count)
system.cpu.branchPred.btb.lookups::DirectUncond      7361342      2.61%     96.67% # Number of BTB lookups (Count)
system.cpu.branchPred.btb.lookups::IndirectCond            0      0.00%     96.67% # Number of BTB lookups (Count)
system.cpu.branchPred.btb.lookups::IndirectUncond      9381148      3.33%    100.00% # Number of BTB lookups (Count)
system.cpu.branchPred.btb.lookups::total    281782043                       # Number of BTB lookups (Count)
system.cpu.branchPred.btb.misses::NoBranch       125799      0.22%      0.22% # Number of BTB misses (Count)
system.cpu.branchPred.btb.misses::Return      9965660     17.72%     17.94% # Number of BTB misses (Count)
system.cpu.branchPred.btb.misses::CallDirect       156912      0.28%     18.22% # Number of BTB misses (Count)
system.cpu.branchPred.btb.misses::CallIndirect         1270      0.00%     18.22% # Number of BTB misses (Count)
system.cpu.branchPred.btb.misses::DirectCond     35567553     63.23%     81.45% # Number of BTB misses (Count)
system.cpu.branchPred.btb.misses::DirectUncond      1055447      1.88%     83.32% # Number of BTB misses (Count)
system.cpu.branchPred.btb.misses::IndirectCond            0      0.00%     83.32% # Number of BTB misses (Count)
system.cpu.branchPred.btb.misses::IndirectUncond      9381148     16.68%    100.00% # Number of BTB misses (Count)
system.cpu.branchPred.btb.misses::total      56253789                       # Number of BTB misses (Count)
system.cpu.branchPred.btb.updates::NoBranch            0      0.00%      0.00% # Number of BTB updates (Count)
system.cpu.branchPred.btb.updates::Return            0      0.00%      0.00% # Number of BTB updates (Count)
system.cpu.branchPred.btb.updates::CallDirect       154078      4.08%      4.08% # Number of BTB updates (Count)
system.cpu.branchPred.btb.updates::CallIndirect            0      0.00%      4.08% # Number of BTB updates (Count)
system.cpu.branchPred.btb.updates::DirectCond      3162503     83.82%     87.90% # Number of BTB updates (Count)
system.cpu.branchPred.btb.updates::DirectUncond       456437     12.10%    100.00% # Number of BTB updates (Count)
system.cpu.branchPred.btb.updates::IndirectCond            0      0.00%    100.00% # Number of BTB updates (Count)
system.cpu.branchPred.btb.updates::IndirectUncond            0      0.00%    100.00% # Number of BTB updates (Count)
system.cpu.branchPred.btb.updates::total      3773018                       # Number of BTB updates (Count)
system.cpu.branchPred.btb.mispredict::NoBranch            0      0.00%      0.00% # Number of BTB mispredictions. No target found or target wrong. (Count)
system.cpu.branchPred.btb.mispredict::Return            0      0.00%      0.00% # Number of BTB mispredictions. No target found or target wrong. (Count)
system.cpu.branchPred.btb.mispredict::CallDirect       154078      4.08%      4.08% # Number of BTB mispredictions. No target found or target wrong. (Count)
system.cpu.branchPred.btb.mispredict::CallIndirect            0      0.00%      4.08% # Number of BTB mispredictions. No target found or target wrong. (Count)
system.cpu.branchPred.btb.mispredict::DirectCond      3162503     83.82%     87.90% # Number of BTB mispredictions. No target found or target wrong. (Count)
system.cpu.branchPred.btb.mispredict::DirectUncond       456437     12.10%    100.00% # Number of BTB mispredictions. No target found or target wrong. (Count)
system.cpu.branchPred.btb.mispredict::IndirectCond            0      0.00%    100.00% # Number of BTB mispredictions. No target found or target wrong. (Count)
system.cpu.branchPred.btb.mispredict::IndirectUncond            0      0.00%    100.00% # Number of BTB mispredictions. No target found or target wrong. (Count)
system.cpu.branchPred.btb.mispredict::total      3773018                       # Number of BTB mispredictions. No target found or target wrong. (Count)
system.cpu.branchPred.btb.power_state.pwrStateResidencyTicks::UNDEFINED 1010310494000                       # Cumulative time (in ticks) in various power states (Tick)
system.cpu.branchPred.indirectBranchPred.lookups      9382418                       # Number of lookups (Count)
system.cpu.branchPred.indirectBranchPred.hits      7885308                       # Number of hits of a tag (Count)
system.cpu.branchPred.indirectBranchPred.misses      1497110                       # Number of misses (Count)
system.cpu.branchPred.indirectBranchPred.targetRecords       443892                       # Number of targets that where recorded/installed in the cache (Count)
system.cpu.branchPred.indirectBranchPred.indirectRecords      9826310                       # Number of indirect branches/calls recorded in the indirect hist (Count)
system.cpu.branchPred.indirectBranchPred.speculativeOverflows            1                       # Number of times more than the allowed capacity for speculative branches/calls where in flight and destroy the path history (Count)
system.cpu.branchPred.ras.pushes             13320449                       # Number of times a PC was pushed onto the RAS (Count)
system.cpu.branchPred.ras.pops               13320444                       # Number of times a PC was poped from the RAS (Count)
system.cpu.branchPred.ras.squashes            4721626                       # Number of times the stack operation was squashed due to wrong speculation. (Count)
system.cpu.branchPred.ras.used                8598817                       # Number of times the RAS is the provider (Count)
system.cpu.branchPred.ras.correct             8598817                       # Number of times the RAS is the provider and the prediction is correct (Count)
system.cpu.branchPred.ras.incorrect                 0                       # Number of times the RAS is the provider and the prediction is wrong (Count)
system.cpu.commit.commitSquashedInsts       428460904                       # The number of squashed insts skipped by commit (Count)
system.cpu.commit.commitNonSpecStalls            6671                       # The number of times commit has been forced to stall to communicate backwards (Count)
system.cpu.commit.branchMispredicts           7809602                       # The number of times a branch was mispredicted (Count)
system.cpu.commit.numCommittedDist::samples    946843158                       # Number of insts commited each cycle (Count)
system.cpu.commit.numCommittedDist::mean     1.533532                       # Number of insts commited each cycle (Count)
system.cpu.commit.numCommittedDist::stdev     2.506563                       # Number of insts commited each cycle (Count)
system.cpu.commit.numCommittedDist::underflows            0      0.00%      0.00% # Number of insts commited each cycle (Count)
system.cpu.commit.numCommittedDist::0       572639433     60.48%     60.48% # Number of insts commited each cycle (Count)
system.cpu.commit.numCommittedDist::1        90745405      9.58%     70.06% # Number of insts commited each cycle (Count)
system.cpu.commit.numCommittedDist::2        52230582      5.52%     75.58% # Number of insts commited each cycle (Count)
system.cpu.commit.numCommittedDist::3        57502489      6.07%     81.65% # Number of insts commited each cycle (Count)
system.cpu.commit.numCommittedDist::4        61679139      6.51%     88.17% # Number of insts commited each cycle (Count)
system.cpu.commit.numCommittedDist::5        11271175      1.19%     89.36% # Number of insts commited each cycle (Count)
system.cpu.commit.numCommittedDist::6         7366841      0.78%     90.13% # Number of insts commited each cycle (Count)
system.cpu.commit.numCommittedDist::7        10237767      1.08%     91.22% # Number of insts commited each cycle (Count)
system.cpu.commit.numCommittedDist::8        83170327      8.78%    100.00% # Number of insts commited each cycle (Count)
system.cpu.commit.numCommittedDist::overflows            0      0.00%    100.00% # Number of insts commited each cycle (Count)
system.cpu.commit.numCommittedDist::min_value            0                       # Number of insts commited each cycle (Count)
system.cpu.commit.numCommittedDist::max_value            8                       # Number of insts commited each cycle (Count)
system.cpu.commit.numCommittedDist::total    946843158                       # Number of insts commited each cycle (Count)
system.cpu.commit.amos                              0                       # Number of atomic instructions committed (Count)
system.cpu.commit.membars                        3904                       # Number of memory barriers committed (Count)
system.cpu.commit.functionCalls               8598822                       # Number of function calls committed. (Count)
system.cpu.commit.committedInstType_0::No_OpClass     25345909      1.75%      1.75% # Class of committed instruction (Count)
system.cpu.commit.committedInstType_0::IntAlu   1077694229     74.22%     75.97% # Class of committed instruction (Count)
system.cpu.commit.committedInstType_0::IntMult          202      0.00%     75.97% # Class of committed instruction (Count)
system.cpu.commit.committedInstType_0::IntDiv     22732700      1.57%     77.53% # Class of committed instruction (Count)
system.cpu.commit.committedInstType_0::FloatAdd      1700437      0.12%     77.65% # Class of committed instruction (Count)
system.cpu.commit.committedInstType_0::FloatCmp            0      0.00%     77.65% # Class of committed instruction (Count)
system.cpu.commit.committedInstType_0::FloatCvt         1248      0.00%     77.65% # Class of committed instruction (Count)
system.cpu.commit.committedInstType_0::FloatMult            0      0.00%     77.65% # Class of committed instruction (Count)
system.cpu.commit.committedInstType_0::FloatMultAcc            0      0.00%     77.65% # Class of committed instruction (Count)
system.cpu.commit.committedInstType_0::FloatDiv            0      0.00%     77.65% # Class of committed instruction (Count)
system.cpu.commit.committedInstType_0::FloatMisc            0      0.00%     77.65% # Class of committed instruction (Count)
system.cpu.commit.committedInstType_0::FloatSqrt            0      0.00%     77.65% # Class of committed instruction (Count)
system.cpu.commit.committedInstType_0::SimdAdd      1315680      0.09%     77.74% # Class of committed instruction (Count)
system.cpu.commit.committedInstType_0::SimdAddAcc            0      0.00%     77.74% # Class of committed instruction (Count)
system.cpu.commit.committedInstType_0::SimdAlu      7918509      0.55%     78.28% # Class of committed instruction (Count)
system.cpu.commit.committedInstType_0::SimdCmp         4452      0.00%     78.29% # Class of committed instruction (Count)
system.cpu.commit.committedInstType_0::SimdCvt      3524560      0.24%     78.53% # Class of committed instruction (Count)
system.cpu.commit.committedInstType_0::SimdMisc      4401305      0.30%     78.83% # Class of committed instruction (Count)
system.cpu.commit.committedInstType_0::SimdMult            0      0.00%     78.83% # Class of committed instruction (Count)
system.cpu.commit.committedInstType_0::SimdMultAcc            0      0.00%     78.83% # Class of committed instruction (Count)
system.cpu.commit.committedInstType_0::SimdMatMultAcc            0      0.00%     78.83% # Class of committed instruction (Count)
system.cpu.commit.committedInstType_0::SimdShift       641984      0.04%     78.88% # Class of committed instruction (Count)
system.cpu.commit.committedInstType_0::SimdShiftAcc            0      0.00%     78.88% # Class of committed instruction (Count)
system.cpu.commit.committedInstType_0::SimdDiv            0      0.00%     78.88% # Class of committed instruction (Count)
system.cpu.commit.committedInstType_0::SimdSqrt            0      0.00%     78.88% # Class of committed instruction (Count)
system.cpu.commit.committedInstType_0::SimdFloatAdd          110      0.00%     78.88% # Class of committed instruction (Count)
system.cpu.commit.committedInstType_0::SimdFloatAlu            0      0.00%     78.88% # Class of committed instruction (Count)
system.cpu.commit.committedInstType_0::SimdFloatCmp            0      0.00%     78.88% # Class of committed instruction (Count)
system.cpu.commit.committedInstType_0::SimdFloatCvt          549      0.00%     78.88% # Class of committed instruction (Count)
system.cpu.commit.committedInstType_0::SimdFloatDiv           55      0.00%     78.88% # Class of committed instruction (Count)
system.cpu.commit.committedInstType_0::SimdFloatMisc            0      0.00%     78.88% # Class of committed instruction (Count)
system.cpu.commit.committedInstType_0::SimdFloatMult           54      0.00%     78.88% # Class of committed instruction (Count)
system.cpu.commit.committedInstType_0::SimdFloatMultAcc            0      0.00%     78.88% # Class of committed instruction (Count)
system.cpu.commit.committedInstType_0::SimdFloatMatMultAcc            0      0.00%     78.88% # Class of committed instruction (Count)
system.cpu.commit.committedInstType_0::SimdFloatSqrt            0      0.00%     78.88% # Class of committed instruction (Count)
system.cpu.commit.committedInstType_0::SimdReduceAdd            0      0.00%     78.88% # Class of committed instruction (Count)
system.cpu.commit.committedInstType_0::SimdReduceAlu            0      0.00%     78.88% # Class of committed instruction (Count)
system.cpu.commit.committedInstType_0::SimdReduceCmp            0      0.00%     78.88% # Class of committed instruction (Count)
system.cpu.commit.committedInstType_0::SimdFloatReduceAdd            0      0.00%     78.88% # Class of committed instruction (Count)
system.cpu.commit.committedInstType_0::SimdFloatReduceCmp            0      0.00%     78.88% # Class of committed instruction (Count)
system.cpu.commit.committedInstType_0::SimdAes            0      0.00%     78.88% # Class of committed instruction (Count)
system.cpu.commit.committedInstType_0::SimdAesMix            0      0.00%     78.88% # Class of committed instruction (Count)
system.cpu.commit.committedInstType_0::SimdSha1Hash            0      0.00%     78.88% # Class of committed instruction (Count)
system.cpu.commit.committedInstType_0::SimdSha1Hash2            0      0.00%     78.88% # Class of committed instruction (Count)
system.cpu.commit.committedInstType_0::SimdSha256Hash            0      0.00%     78.88% # Class of committed instruction (Count)
system.cpu.commit.committedInstType_0::SimdSha256Hash2            0      0.00%     78.88% # Class of committed instruction (Count)
system.cpu.commit.committedInstType_0::SimdShaSigma2            0      0.00%     78.88% # Class of committed instruction (Count)
system.cpu.commit.committedInstType_0::SimdShaSigma3            0      0.00%     78.88% # Class of committed instruction (Count)
system.cpu.commit.committedInstType_0::SimdPredAlu            0      0.00%     78.88% # Class of committed instruction (Count)
system.cpu.commit.committedInstType_0::Matrix            0      0.00%     78.88% # Class of committed instruction (Count)
system.cpu.commit.committedInstType_0::MatrixMov            0      0.00%     78.88% # Class of committed instruction (Count)
system.cpu.commit.committedInstType_0::MatrixOP            0      0.00%     78.88% # Class of committed instruction (Count)
system.cpu.commit.committedInstType_0::MemRead    141949111      9.78%     88.65% # Class of committed instruction (Count)
system.cpu.commit.committedInstType_0::MemWrite    143588314      9.89%     98.54% # Class of committed instruction (Count)
system.cpu.commit.committedInstType_0::FloatMemRead      8310940      0.57%     99.11% # Class of committed instruction (Count)
system.cpu.commit.committedInstType_0::FloatMemWrite     12884150      0.89%    100.00% # Class of committed instruction (Count)
system.cpu.commit.committedInstType_0::IprAccess            0      0.00%    100.00% # Class of committed instruction (Count)
system.cpu.commit.committedInstType_0::InstPrefetch            0      0.00%    100.00% # Class of committed instruction (Count)
system.cpu.commit.committedInstType_0::SimdUnitStrideLoad            0      0.00%    100.00% # Class of committed instruction (Count)
system.cpu.commit.committedInstType_0::SimdUnitStrideStore            0      0.00%    100.00% # Class of committed instruction (Count)
system.cpu.commit.committedInstType_0::SimdUnitStrideMaskLoad            0      0.00%    100.00% # Class of committed instruction (Count)
system.cpu.commit.committedInstType_0::SimdUnitStrideMaskStore            0      0.00%    100.00% # Class of committed instruction (Count)
system.cpu.commit.committedInstType_0::SimdStridedLoad            0      0.00%    100.00% # Class of committed instruction (Count)
system.cpu.commit.committedInstType_0::SimdStridedStore            0      0.00%    100.00% # Class of committed instruction (Count)
system.cpu.commit.committedInstType_0::SimdIndexedLoad            0      0.00%    100.00% # Class of committed instruction (Count)
system.cpu.commit.committedInstType_0::SimdIndexedStore            0      0.00%    100.00% # Class of committed instruction (Count)
system.cpu.commit.committedInstType_0::SimdWholeRegisterLoad            0      0.00%    100.00% # Class of committed instruction (Count)
system.cpu.commit.committedInstType_0::SimdWholeRegisterStore            0      0.00%    100.00% # Class of committed instruction (Count)
system.cpu.commit.committedInstType_0::SimdUnitStrideFaultOnlyFirstLoad            0      0.00%    100.00% # Class of committed instruction (Count)
system.cpu.commit.committedInstType_0::SimdUnitStrideSegmentedLoad            0      0.00%    100.00% # Class of committed instruction (Count)
system.cpu.commit.committedInstType_0::SimdUnitStrideSegmentedStore            0      0.00%    100.00% # Class of committed instruction (Count)
system.cpu.commit.committedInstType_0::SimdExt            0      0.00%    100.00% # Class of committed instruction (Count)
system.cpu.commit.committedInstType_0::SimdFloatExt            0      0.00%    100.00% # Class of committed instruction (Count)
system.cpu.commit.committedInstType_0::SimdConfig            0      0.00%    100.00% # Class of committed instruction (Count)
system.cpu.commit.committedInstType_0::total   1452014498                       # Class of committed instruction (Count)
system.cpu.commit.commitEligibleSamples      83170327                       # number cycles where commit BW limit reached (Cycle)
system.cpu.commitStats0.numInsts            634616459                       # Number of instructions committed (thread level) (Count)
system.cpu.commitStats0.numOps             1452014498                       # Number of ops (including micro ops) committed (thread level) (Count)
system.cpu.commitStats0.numInstsNotNOP      634616459                       # Number of instructions committed excluding NOPs or prefetches (Count)
system.cpu.commitStats0.numOpsNotNOP       1452014498                       # Number of Ops (including micro ops) Simulated (Count)
system.cpu.commitStats0.cpi                  1.592002                       # CPI: cycles per instruction (thread level) ((Cycle/Count))
system.cpu.commitStats0.ipc                  0.628140                       # IPC: instructions per cycle (thread level) ((Count/Cycle))
system.cpu.commitStats0.numMemRefs          306732515                       # Number of memory references committed (Count)
system.cpu.commitStats0.numFpInsts           43365916                       # Number of float instructions (Count)
system.cpu.commitStats0.numIntInsts        1337168210                       # Number of integer instructions (Count)
system.cpu.commitStats0.numLoadInsts        150260051                       # Number of load instructions (Count)
system.cpu.commitStats0.numStoreInsts       156472464                       # Number of store instructions (Count)
system.cpu.commitStats0.numVecInsts                 0                       # Number of vector instructions (Count)
system.cpu.commitStats0.committedInstType::No_OpClass     25345909      1.75%      1.75% # Class of committed instruction. (Count)
system.cpu.commitStats0.committedInstType::IntAlu   1077694229     74.22%     75.97% # Class of committed instruction. (Count)
system.cpu.commitStats0.committedInstType::IntMult          202      0.00%     75.97% # Class of committed instruction. (Count)
system.cpu.commitStats0.committedInstType::IntDiv     22732700      1.57%     77.53% # Class of committed instruction. (Count)
system.cpu.commitStats0.committedInstType::FloatAdd      1700437      0.12%     77.65% # Class of committed instruction. (Count)
system.cpu.commitStats0.committedInstType::FloatCmp            0      0.00%     77.65% # Class of committed instruction. (Count)
system.cpu.commitStats0.committedInstType::FloatCvt         1248      0.00%     77.65% # Class of committed instruction. (Count)
system.cpu.commitStats0.committedInstType::FloatMult            0      0.00%     77.65% # Class of committed instruction. (Count)
system.cpu.commitStats0.committedInstType::FloatMultAcc            0      0.00%     77.65% # Class of committed instruction. (Count)
system.cpu.commitStats0.committedInstType::FloatDiv            0      0.00%     77.65% # Class of committed instruction. (Count)
system.cpu.commitStats0.committedInstType::FloatMisc            0      0.00%     77.65% # Class of committed instruction. (Count)
system.cpu.commitStats0.committedInstType::FloatSqrt            0      0.00%     77.65% # Class of committed instruction. (Count)
system.cpu.commitStats0.committedInstType::SimdAdd      1315680      0.09%     77.74% # Class of committed instruction. (Count)
system.cpu.commitStats0.committedInstType::SimdAddAcc            0      0.00%     77.74% # Class of committed instruction. (Count)
system.cpu.commitStats0.committedInstType::SimdAlu      7918509      0.55%     78.28% # Class of committed instruction. (Count)
system.cpu.commitStats0.committedInstType::SimdCmp         4452      0.00%     78.29% # Class of committed instruction. (Count)
system.cpu.commitStats0.committedInstType::SimdCvt      3524560      0.24%     78.53% # Class of committed instruction. (Count)
system.cpu.commitStats0.committedInstType::SimdMisc      4401305      0.30%     78.83% # Class of committed instruction. (Count)
system.cpu.commitStats0.committedInstType::SimdMult            0      0.00%     78.83% # Class of committed instruction. (Count)
system.cpu.commitStats0.committedInstType::SimdMultAcc            0      0.00%     78.83% # Class of committed instruction. (Count)
system.cpu.commitStats0.committedInstType::SimdMatMultAcc            0      0.00%     78.83% # Class of committed instruction. (Count)
system.cpu.commitStats0.committedInstType::SimdShift       641984      0.04%     78.88% # Class of committed instruction. (Count)
system.cpu.commitStats0.committedInstType::SimdShiftAcc            0      0.00%     78.88% # Class of committed instruction. (Count)
system.cpu.commitStats0.committedInstType::SimdDiv            0      0.00%     78.88% # Class of committed instruction. (Count)
system.cpu.commitStats0.committedInstType::SimdSqrt            0      0.00%     78.88% # Class of committed instruction. (Count)
system.cpu.commitStats0.committedInstType::SimdFloatAdd          110      0.00%     78.88% # Class of committed instruction. (Count)
system.cpu.commitStats0.committedInstType::SimdFloatAlu            0      0.00%     78.88% # Class of committed instruction. (Count)
system.cpu.commitStats0.committedInstType::SimdFloatCmp            0      0.00%     78.88% # Class of committed instruction. (Count)
system.cpu.commitStats0.committedInstType::SimdFloatCvt          549      0.00%     78.88% # Class of committed instruction. (Count)
system.cpu.commitStats0.committedInstType::SimdFloatDiv           55      0.00%     78.88% # Class of committed instruction. (Count)
system.cpu.commitStats0.committedInstType::SimdFloatMisc            0      0.00%     78.88% # Class of committed instruction. (Count)
system.cpu.commitStats0.committedInstType::SimdFloatMult           54      0.00%     78.88% # Class of committed instruction. (Count)
system.cpu.commitStats0.committedInstType::SimdFloatMultAcc            0      0.00%     78.88% # Class of committed instruction. (Count)
system.cpu.commitStats0.committedInstType::SimdFloatMatMultAcc            0      0.00%     78.88% # Class of committed instruction. (Count)
system.cpu.commitStats0.committedInstType::SimdFloatSqrt            0      0.00%     78.88% # Class of committed instruction. (Count)
system.cpu.commitStats0.committedInstType::SimdReduceAdd            0      0.00%     78.88% # Class of committed instruction. (Count)
system.cpu.commitStats0.committedInstType::SimdReduceAlu            0      0.00%     78.88% # Class of committed instruction. (Count)
system.cpu.commitStats0.committedInstType::SimdReduceCmp            0      0.00%     78.88% # Class of committed instruction. (Count)
system.cpu.commitStats0.committedInstType::SimdFloatReduceAdd            0      0.00%     78.88% # Class of committed instruction. (Count)
system.cpu.commitStats0.committedInstType::SimdFloatReduceCmp            0      0.00%     78.88% # Class of committed instruction. (Count)
system.cpu.commitStats0.committedInstType::SimdAes            0      0.00%     78.88% # Class of committed instruction. (Count)
system.cpu.commitStats0.committedInstType::SimdAesMix            0      0.00%     78.88% # Class of committed instruction. (Count)
system.cpu.commitStats0.committedInstType::SimdSha1Hash            0      0.00%     78.88% # Class of committed instruction. (Count)
system.cpu.commitStats0.committedInstType::SimdSha1Hash2            0      0.00%     78.88% # Class of committed instruction. (Count)
system.cpu.commitStats0.committedInstType::SimdSha256Hash            0      0.00%     78.88% # Class of committed instruction. (Count)
system.cpu.commitStats0.committedInstType::SimdSha256Hash2            0      0.00%     78.88% # Class of committed instruction. (Count)
system.cpu.commitStats0.committedInstType::SimdShaSigma2            0      0.00%     78.88% # Class of committed instruction. (Count)
system.cpu.commitStats0.committedInstType::SimdShaSigma3            0      0.00%     78.88% # Class of committed instruction. (Count)
system.cpu.commitStats0.committedInstType::SimdPredAlu            0      0.00%     78.88% # Class of committed instruction. (Count)
system.cpu.commitStats0.committedInstType::Matrix            0      0.00%     78.88% # Class of committed instruction. (Count)
system.cpu.commitStats0.committedInstType::MatrixMov            0      0.00%     78.88% # Class of committed instruction. (Count)
system.cpu.commitStats0.committedInstType::MatrixOP            0      0.00%     78.88% # Class of committed instruction. (Count)
system.cpu.commitStats0.committedInstType::MemRead    141949111      9.78%     88.65% # Class of committed instruction. (Count)
system.cpu.commitStats0.committedInstType::MemWrite    143588314      9.89%     98.54% # Class of committed instruction. (Count)
system.cpu.commitStats0.committedInstType::FloatMemRead      8310940      0.57%     99.11% # Class of committed instruction. (Count)
system.cpu.commitStats0.committedInstType::FloatMemWrite     12884150      0.89%    100.00% # Class of committed instruction. (Count)
system.cpu.commitStats0.committedInstType::IprAccess            0      0.00%    100.00% # Class of committed instruction. (Count)
system.cpu.commitStats0.committedInstType::InstPrefetch            0      0.00%    100.00% # Class of committed instruction. (Count)
system.cpu.commitStats0.committedInstType::SimdUnitStrideLoad            0      0.00%    100.00% # Class of committed instruction. (Count)
system.cpu.commitStats0.committedInstType::SimdUnitStrideStore            0      0.00%    100.00% # Class of committed instruction. (Count)
system.cpu.commitStats0.committedInstType::SimdUnitStrideMaskLoad            0      0.00%    100.00% # Class of committed instruction. (Count)
system.cpu.commitStats0.committedInstType::SimdUnitStrideMaskStore            0      0.00%    100.00% # Class of committed instruction. (Count)
system.cpu.commitStats0.committedInstType::SimdStridedLoad            0      0.00%    100.00% # Class of committed instruction. (Count)
system.cpu.commitStats0.committedInstType::SimdStridedStore            0      0.00%    100.00% # Class of committed instruction. (Count)
system.cpu.commitStats0.committedInstType::SimdIndexedLoad            0      0.00%    100.00% # Class of committed instruction. (Count)
system.cpu.commitStats0.committedInstType::SimdIndexedStore            0      0.00%    100.00% # Class of committed instruction. (Count)
system.cpu.commitStats0.committedInstType::SimdWholeRegisterLoad            0      0.00%    100.00% # Class of committed instruction. (Count)
system.cpu.commitStats0.committedInstType::SimdWholeRegisterStore            0      0.00%    100.00% # Class of committed instruction. (Count)
system.cpu.commitStats0.committedInstType::SimdUnitStrideFaultOnlyFirstLoad            0      0.00%    100.00% # Class of committed instruction. (Count)
system.cpu.commitStats0.committedInstType::SimdUnitStrideSegmentedLoad            0      0.00%    100.00% # Class of committed instruction. (Count)
system.cpu.commitStats0.committedInstType::SimdUnitStrideSegmentedStore            0      0.00%    100.00% # Class of committed instruction. (Count)
system.cpu.commitStats0.committedInstType::SimdExt            0      0.00%    100.00% # Class of committed instruction. (Count)
system.cpu.commitStats0.committedInstType::SimdFloatExt            0      0.00%    100.00% # Class of committed instruction. (Count)
system.cpu.commitStats0.committedInstType::SimdConfig            0      0.00%    100.00% # Class of committed instruction. (Count)
system.cpu.commitStats0.committedInstType::total   1452014498                       # Class of committed instruction. (Count)
system.cpu.commitStats0.committedControl::IsControl    185473133                       # Class of control type instructions committed (Count)
system.cpu.commitStats0.committedControl::IsDirectControl    170099974                       # Class of control type instructions committed (Count)
system.cpu.commitStats0.committedControl::IsIndirectControl     15316028                       # Class of control type instructions committed (Count)
system.cpu.commitStats0.committedControl::IsCondControl    156024968                       # Class of control type instructions committed (Count)
system.cpu.commitStats0.committedControl::IsUncondControl     29391034                       # Class of control type instructions committed (Count)
system.cpu.commitStats0.committedControl::IsCall      8598822                       # Class of control type instructions committed (Count)
system.cpu.commitStats0.committedControl::IsReturn      8598817                       # Class of control type instructions committed (Count)
system.cpu.decode.idleCycles                431759731                       # Number of cycles decode is idle (Cycle)
system.cpu.decode.blockedCycles             281414089                       # Number of cycles decode is blocked (Cycle)
system.cpu.decode.runCycles                 231333295                       # Number of cycles decode is running (Cycle)
system.cpu.decode.unblockCycles              51787210                       # Number of cycles decode is unblocking (Cycle)
system.cpu.decode.squashCycles                7816715                       # Number of cycles decode is squashing (Cycle)
system.cpu.decode.branchResolved            154226598                       # Number of times decode resolved a branch (Count)
system.cpu.decode.branchMispred               1009956                       # Number of times decode detected a branch misprediction (Count)
system.cpu.decode.decodedInsts             1958084066                       # Number of instructions handled by decode (Count)
system.cpu.decode.squashedInsts               4023472                       # Number of squashed instructions handled by decode (Count)
system.cpu.executeStats0.numInsts          1656890206                       # Number of executed instructions (Count)
system.cpu.executeStats0.numNop                     0                       # Number of nop insts executed (Count)
system.cpu.executeStats0.numBranches        200151606                       # Number of branches executed (Count)
system.cpu.executeStats0.numLoadInsts       175351610                       # Number of load instructions executed (Count)
system.cpu.executeStats0.numStoreInsts      165901544                       # Number of stores executed (Count)
system.cpu.executeStats0.instRate            1.639981                       # Inst execution rate ((Count/Cycle))
system.cpu.executeStats0.numCCRegReads     1022431714                       # Number of times the CC registers were read (Count)
system.cpu.executeStats0.numCCRegWrites     536265546                       # Number of times the CC registers were written (Count)
system.cpu.executeStats0.numFpRegReads       68971546                       # Number of times the floating registers were read (Count)
system.cpu.executeStats0.numFpRegWrites      36851503                       # Number of times the floating registers were written (Count)
system.cpu.executeStats0.numIntRegReads    2022358967                       # Number of times the integer registers were read (Count)
system.cpu.executeStats0.numIntRegWrites   1168529561                       # Number of times the integer registers were written (Count)
system.cpu.executeStats0.numMemRefs         341253154                       # Number of memory refs (Count)
system.cpu.executeStats0.numMiscRegReads    614429910                       # Number of times the Misc registers were read (Count)
system.cpu.executeStats0.numMiscRegWrites          702                       # Number of times the Misc registers were written (Count)
system.cpu.executeStats0.numVecAluAccesses            0                       # Number of vector alu accesses (Count)
system.cpu.executeStats0.numDiscardedOps            0                       # Number of ops (including micro ops) which were discarded before commit (Count)
system.cpu.fetch.predictedBranches          193902292                       # Number of branches that fetch has predicted taken (Count)
system.cpu.fetch.cycles                     538693673                       # Number of cycles fetch has run and was not squashing or blocked (Cycle)
system.cpu.fetch.squashCycles                17649286                       # Number of cycles fetch has spent squashing (Cycle)
system.cpu.fetch.tlbCycles                          1                       # Number of cycles fetch has spent waiting for tlb (Cycle)
system.cpu.fetch.miscStallCycles                26631                       # Number of cycles fetch has spent waiting on interrupts, or bad addresses, or out of MSHRs (Cycle)
system.cpu.fetch.pendingTrapStallCycles        229638                       # Number of stall cycles due to pending traps (Cycle)
[...]
system.mem_ctrl.dram.bytesWritten::total        44480                       # Number of bytes written to this memory (Byte)
system.mem_ctrl.dram.numReads::cpu.inst          1245                       # Number of read requests responded to by this memory (Count)
system.mem_ctrl.dram.numReads::cpu.data          4143                       # Number of read requests responded to by this memory (Count)
system.mem_ctrl.dram.numReads::total             5388                       # Number of read requests responded to by this memory (Count)
system.mem_ctrl.dram.numWrites::writebacks          695                       # Number of write requests responded to by this memory (Count)
system.mem_ctrl.dram.numWrites::total             695                       # Number of write requests responded to by this memory (Count)
system.mem_ctrl.dram.bwRead::cpu.inst       379603912                       # Total read bandwidth from this memory ((Byte/Second))
system.mem_ctrl.dram.bwRead::cpu.data      1263212055                       # Total read bandwidth from this memory ((Byte/Second))
system.mem_ctrl.dram.bwRead::total         1642815967                       # Total read bandwidth from this memory ((Byte/Second))
system.mem_ctrl.dram.bwInstRead::cpu.inst    379603912                       # Instruction read bandwidth from this memory ((Byte/Second))
system.mem_ctrl.dram.bwInstRead::total      379603912                       # Instruction read bandwidth from this memory ((Byte/Second))
system.mem_ctrl.dram.bwWrite::writebacks    211907405                       # Write bandwidth from this memory ((Byte/Second))
system.mem_ctrl.dram.bwWrite::total         211907405                       # Write bandwidth from this memory ((Byte/Second))
system.mem_ctrl.dram.bwTotal::writebacks    211907405                       # Total bandwidth to/from this memory ((Byte/Second))
system.mem_ctrl.dram.bwTotal::cpu.inst      379603912                       # Total bandwidth to/from this memory ((Byte/Second))
system.mem_ctrl.dram.bwTotal::cpu.data     1263212055                       # Total bandwidth to/from this memory ((Byte/Second))
system.mem_ctrl.dram.bwTotal::total        1854723372                       # Total bandwidth to/from this memory ((Byte/Second))
system.mem_ctrl.dram.readBursts                  5363                       # Number of DRAM read bursts (Count)
system.mem_ctrl.dram.writeBursts                  697                       # Number of DRAM write bursts (Count)
system.mem_ctrl.dram.perBankRdBursts::0           307                       # Per bank write bursts (Count)
system.mem_ctrl.dram.perBankRdBursts::1           486                       # Per bank write bursts (Count)
system.mem_ctrl.dram.perBankRdBursts::2           430                       # Per bank write bursts (Count)
system.mem_ctrl.dram.perBankRdBursts::3           349                       # Per bank write bursts (Count)
system.mem_ctrl.dram.perBankRdBursts::4           358                       # Per bank write bursts (Count)
system.mem_ctrl.dram.perBankRdBursts::5           387                       # Per bank write bursts (Count)
system.mem_ctrl.dram.perBankRdBursts::6           436                       # Per bank write bursts (Count)
system.mem_ctrl.dram.perBankRdBursts::7           405                       # Per bank write bursts (Count)
system.mem_ctrl.dram.perBankRdBursts::8           253                       # Per bank write bursts (Count)
system.mem_ctrl.dram.perBankRdBursts::9           244                       # Per bank write bursts (Count)
system.mem_ctrl.dram.perBankRdBursts::10          221                       # Per bank write bursts (Count)
system.mem_ctrl.dram.perBankRdBursts::11          263                       # Per bank write bursts (Count)
system.mem_ctrl.dram.perBankRdBursts::12          270                       # Per bank write bursts (Count)
system.mem_ctrl.dram.perBankRdBursts::13          340                       # Per bank write bursts (Count)
system.mem_ctrl.dram.perBankRdBursts::14          331                       # Per bank write bursts (Count)
system.mem_ctrl.dram.perBankRdBursts::15          283                       # Per bank write bursts (Count)
system.mem_ctrl.dram.perBankWrBursts::0             3                       # Per bank write bursts (Count)
system.mem_ctrl.dram.perBankWrBursts::1           100                       # Per bank write bursts (Count)
system.mem_ctrl.dram.perBankWrBursts::2            27                       # Per bank write bursts (Count)
system.mem_ctrl.dram.perBankWrBursts::3             1                       # Per bank write bursts (Count)
system.mem_ctrl.dram.perBankWrBursts::4             0                       # Per bank write bursts (Count)
system.mem_ctrl.dram.perBankWrBursts::5            22                       # Per bank write bursts (Count)
system.mem_ctrl.dram.perBankWrBursts::6            65                       # Per bank write bursts (Count)
system.mem_ctrl.dram.perBankWrBursts::7           120                       # Per bank write bursts (Count)
system.mem_ctrl.dram.perBankWrBursts::8           126                       # Per bank write bursts (Count)
system.mem_ctrl.dram.perBankWrBursts::9            85                       # Per bank write bursts (Count)
system.mem_ctrl.dram.perBankWrBursts::10           26                       # Per bank write bursts (Count)
system.mem_ctrl.dram.perBankWrBursts::11           24                       # Per bank write bursts (Count)
system.mem_ctrl.dram.perBankWrBursts::12            3                       # Per bank write bursts (Count)
system.mem_ctrl.dram.perBankWrBursts::13           70                       # Per bank write bursts (Count)
system.mem_ctrl.dram.perBankWrBursts::14           16                       # Per bank write bursts (Count)
system.mem_ctrl.dram.perBankWrBursts::15            9                       # Per bank write bursts (Count)
system.mem_ctrl.dram.totQLat                 63933750                       # Total ticks spent queuing (Tick)
system.mem_ctrl.dram.totBusLat               26815000                       # Total ticks spent in databus transfers (Tick)
system.mem_ctrl.dram.totMemAccLat           164490000                       # Total ticks spent from burst creation until serviced by the DRAM (Tick)
system.mem_ctrl.dram.avgQLat                 11921.27                       # Average queueing delay per DRAM burst ((Tick/Count))
system.mem_ctrl.dram.avgBusLat                5000.00                       # Average bus latency per DRAM burst ((Tick/Count))
system.mem_ctrl.dram.avgMemAccLat            30671.27                       # Average memory access latency per DRAM burst ((Tick/Count))
system.mem_ctrl.dram.readRowHits                 4312                       # Number of row buffer hits during reads (Count)
system.mem_ctrl.dram.writeRowHits                 564                       # Number of row buffer hits during writes (Count)
system.mem_ctrl.dram.readRowHitRate             80.40                       # Row buffer hit rate for reads (Ratio)
system.mem_ctrl.dram.writeRowHitRate            80.92                       # Row buffer hit rate for writes (Ratio)
system.mem_ctrl.dram.bytesPerActivate::samples         1189                       # Bytes accessed per row activation (Byte)
system.mem_ctrl.dram.bytesPerActivate::mean   327.212784                       # Bytes accessed per row activation (Byte)
system.mem_ctrl.dram.bytesPerActivate::gmean   184.635642                       # Bytes accessed per row activation (Byte)
system.mem_ctrl.dram.bytesPerActivate::stdev   356.834379                       # Bytes accessed per row activation (Byte)
system.mem_ctrl.dram.bytesPerActivate::0-127          448     37.68%     37.68% # Bytes accessed per row activation (Byte)
system.mem_ctrl.dram.bytesPerActivate::128-255          293     24.64%     62.32% # Bytes accessed per row activation (Byte)
system.mem_ctrl.dram.bytesPerActivate::256-383          112      9.42%     71.74% # Bytes accessed per row activation (Byte)
system.mem_ctrl.dram.bytesPerActivate::384-511           50      4.21%     75.95% # Bytes accessed per row activation (Byte)
system.mem_ctrl.dram.bytesPerActivate::512-639           29      2.44%     78.39% # Bytes accessed per row activation (Byte)
system.mem_ctrl.dram.bytesPerActivate::640-767           27      2.27%     80.66% # Bytes accessed per row activation (Byte)
system.mem_ctrl.dram.bytesPerActivate::768-895           19      1.60%     82.25% # Bytes accessed per row activation (Byte)
system.mem_ctrl.dram.bytesPerActivate::896-1023           10      0.84%     83.10% # Bytes accessed per row activation (Byte)
system.mem_ctrl.dram.bytesPerActivate::1024-1151          201     16.90%    100.00% # Bytes accessed per row activation (Byte)
system.mem_ctrl.dram.bytesPerActivate::total         1189                       # Bytes accessed per row activation (Byte)
system.mem_ctrl.dram.dramBytesRead             343232                       # Total bytes read (Byte)
system.mem_ctrl.dram.dramBytesWritten           44608                       # Total bytes written (Byte)
system.mem_ctrl.dram.avgRdBW              1635.193399                       # Average DRAM read bandwidth in MiBytes/s ((Byte/Second))
system.mem_ctrl.dram.avgWrBW               212.517210                       # Average DRAM write bandwidth in MiBytes/s ((Byte/Second))
system.mem_ctrl.dram.peakBW                  12800.00                       # Theoretical peak bandwidth in MiByte/s ((Byte/Second))
system.mem_ctrl.dram.busUtil                    14.44                       # Data bus utilization in percentage (Ratio)
system.mem_ctrl.dram.busUtilRead                12.77                       # Data bus utilization in percentage for reads (Ratio)
system.mem_ctrl.dram.busUtilWrite                1.66                       # Data bus utilization in percentage for writes (Ratio)
system.mem_ctrl.dram.pageHitRate                80.46                       # Row buffer hit rate, read and write combined (Ratio)
system.mem_ctrl.dram.power_state.pwrStateResidencyTicks::UNDEFINED    209903000                       # Cumulative time (in ticks) in various power states (Tick)
system.mem_ctrl.dram.rank0.actEnergy          4583880                       # Energy for activate commands per rank (pJ) (Joule)
system.mem_ctrl.dram.rank0.preEnergy          2447775                       # Energy for precharge commands per rank (pJ) (Joule)
system.mem_ctrl.dram.rank0.readEnergy        22548120                       # Energy for read commands per rank (pJ) (Joule)
system.mem_ctrl.dram.rank0.writeEnergy        1785240                       # Energy for write commands per rank (pJ) (Joule)
system.mem_ctrl.dram.rank0.refreshEnergy 16595280.000000                       # Energy for refresh commands per rank (pJ) (Joule)
system.mem_ctrl.dram.rank0.actBackEnergy     94510560                       # Energy for active background per rank (pJ) (Joule)
system.mem_ctrl.dram.rank0.preBackEnergy      1014720                       # Energy for precharge background per rank (pJ) (Joule)
system.mem_ctrl.dram.rank0.actPowerDownEnergy            0                       # Energy for active power-down per rank (pJ) (Joule)
system.mem_ctrl.dram.rank0.prePowerDownEnergy            0                       # Energy for precharge power-down per rank (pJ) (Joule)
system.mem_ctrl.dram.rank0.selfRefreshEnergy            0                       # Energy for self refresh per rank (pJ) (Joule)
system.mem_ctrl.dram.rank0.totalEnergy      143485575                       # Total energy per rank (pJ) (Joule)
system.mem_ctrl.dram.rank0.averagePower    683.580392                       # Core power per rank (mW) (Watt)
system.mem_ctrl.dram.rank0.totalIdleTime            0                       # Total Idle time Per DRAM Rank (Tick)
system.mem_ctrl.dram.rank0.pwrStateTime::IDLE      1676500                       # Time in different power states (Tick)
system.mem_ctrl.dram.rank0.pwrStateTime::REF      7020000                       # Time in different power states (Tick)
system.mem_ctrl.dram.rank0.pwrStateTime::SREF            0                       # Time in different power states (Tick)
system.mem_ctrl.dram.rank0.pwrStateTime::PRE_PDN            0                       # Time in different power states (Tick)
system.mem_ctrl.dram.rank0.pwrStateTime::ACT    201206500                       # Time in different power states (Tick)
system.mem_ctrl.dram.rank0.pwrStateTime::ACT_PDN            0                       # Time in different power states (Tick)
system.mem_ctrl.dram.rank1.actEnergy          3869880                       # Energy for activate commands per rank (pJ) (Joule)
system.mem_ctrl.dram.rank1.preEnergy          2064480                       # Energy for precharge commands per rank (pJ) (Joule)
system.mem_ctrl.dram.rank1.readEnergy        15743700                       # Energy for read commands per rank (pJ) (Joule)
system.mem_ctrl.dram.rank1.writeEnergy        1873980                       # Energy for write commands per rank (pJ) (Joule)
system.mem_ctrl.dram.rank1.refreshEnergy 16595280.000000                       # Energy for refresh commands per rank (pJ) (Joule)
system.mem_ctrl.dram.rank1.actBackEnergy     89003220                       # Energy for active background per rank (pJ) (Joule)
system.mem_ctrl.dram.rank1.preBackEnergy      5652480                       # Energy for precharge background per rank (pJ) (Joule)
system.mem_ctrl.dram.rank1.actPowerDownEnergy            0                       # Energy for active power-down per rank (pJ) (Joule)
system.mem_ctrl.dram.rank1.prePowerDownEnergy            0                       # Energy for precharge power-down per rank (pJ) (Joule)
system.mem_ctrl.dram.rank1.selfRefreshEnergy            0                       # Energy for self refresh per rank (pJ) (Joule)
system.mem_ctrl.dram.rank1.totalEnergy      134803020                       # Total energy per rank (pJ) (Joule)
system.mem_ctrl.dram.rank1.averagePower    642.215785                       # Core power per rank (mW) (Watt)
system.mem_ctrl.dram.rank1.totalIdleTime            0                       # Total Idle time Per DRAM Rank (Tick)
system.mem_ctrl.dram.rank1.pwrStateTime::IDLE     13671000                       # Time in different power states (Tick)
system.mem_ctrl.dram.rank1.pwrStateTime::REF      7020000                       # Time in different power states (Tick)
system.mem_ctrl.dram.rank1.pwrStateTime::SREF            0                       # Time in different power states (Tick)
system.mem_ctrl.dram.rank1.pwrStateTime::PRE_PDN            0                       # Time in different power states (Tick)
system.mem_ctrl.dram.rank1.pwrStateTime::ACT    189212000                       # Time in different power states (Tick)
system.mem_ctrl.dram.rank1.pwrStateTime::ACT_PDN            0                       # Time in different power states (Tick)
system.mem_ctrl.power_state.pwrStateResidencyTicks::UNDEFINED    209903000                       # Cumulative time (in ticks) in various power states (Tick)
system.membus.transDist::ReadResp                5304                       # Transaction distribution (Count)
system.membus.transDist::WritebackDirty           695                       # Transaction distribution (Count)
system.membus.transDist::CleanEvict              4692                       # Transaction distribution (Count)
system.membus.transDist::ReadExReq                 84                       # Transaction distribution (Count)
system.membus.transDist::ReadExResp                84                       # Transaction distribution (Count)
system.membus.transDist::ReadSharedReq           5304                       # Transaction distribution (Count)
system.membus.pktCount_system.l2_cache.mem_side_port::system.mem_ctrl.port        16163                       # Packet count per connected requestor and responder (Count)
system.membus.pktCount_system.l2_cache.mem_side_port::total        16163                       # Packet count per connected requestor and responder (Count)
system.membus.pktCount::total                   16163                       # Packet count per connected requestor and responder (Count)
system.membus.pktSize_system.l2_cache.mem_side_port::system.mem_ctrl.port       389312                       # Cumulative packet size per connected requestor and responder (Byte)
system.membus.pktSize_system.l2_cache.mem_side_port::total       389312                       # Cumulative packet size per connected requestor and responder (Byte)
system.membus.pktSize::total                   389312                       # Cumulative packet size per connected requestor and responder (Byte)
system.membus.snoops                                0                       # Total snoops (Count)
system.membus.snoopTraffic                          0                       # Total snoop traffic (Byte)
system.membus.snoopFanout::samples               5388                       # Request fanout histogram (Count)
system.membus.snoopFanout::mean                     0                       # Request fanout histogram (Count)
system.membus.snoopFanout::stdev                    0                       # Request fanout histogram (Count)
system.membus.snoopFanout::underflows               0      0.00%      0.00% # Request fanout histogram (Count)
system.membus.snoopFanout::0                     5388    100.00%    100.00% # Request fanout histogram (Count)
system.membus.snoopFanout::1                        0      0.00%    100.00% # Request fanout histogram (Count)
system.membus.snoopFanout::overflows                0      0.00%    100.00% # Request fanout histogram (Count)
system.membus.snoopFanout::min_value                0                       # Request fanout histogram (Count)
system.membus.snoopFanout::max_value                0                       # Request fanout histogram (Count)
system.membus.snoopFanout::total                 5388                       # Request fanout histogram (Count)
system.membus.power_state.pwrStateResidencyTicks::UNDEFINED    209903000                       # Cumulative time (in ticks) in various power states (Tick)
system.membus.reqLayer2.occupancy            13555000                       # Layer occupancy (ticks) (Tick)
system.membus.reqLayer2.utilization               0.1                       # Layer utilization (Ratio)
system.membus.respLayer2.occupancy           28408250                       # Layer occupancy (ticks) (Tick)
system.membus.respLayer2.utilization              0.1                       # Layer utilization (Ratio)
system.membus.snoop_filter.totRequests          10775                       # Total number of requests made to the snoop filter. (Count)
system.membus.snoop_filter.hitSingleRequests         5387                       # Number of requests hitting in the snoop filter with a single holder of the requested data. (Count)
system.membus.snoop_filter.hitMultiRequests            0                       # Number of requests hitting in the snoop filter with multiple (>1) holders of the requested data. (Count)
system.membus.snoop_filter.totSnoops                0                       # Total number of snoops made to the snoop filter. (Count)
system.membus.snoop_filter.hitSingleSnoops            0                       # Number of snoops hitting in the snoop filter with a single holder of the requested data. (Count)
system.membus.snoop_filter.hitMultiSnoops            0                       # Number of snoops hitting in the snoop filter with multiple (>1) holders of the requested data. (Count)
system.workload.inst.arm                            0                       # number of arm instructions executed (Count)
system.workload.inst.quiesce                        0                       # number of quiesce instructions executed (Count)

---------- End Simulation Statistics   ----------
