
---------- Begin Simulation Statistics ----------
simSeconds                                   1.014781                       # Number of seconds simulated (Second)
simTicks                                 1014781204000                       # Number of ticks simulated (Tick)
finalTick                                1014781204000                       # Number of ticks from beginning of simulation (restored from checkpoints and never reset) (Tick)
simFreq                                  1000000000000                       # The number of ticks per simulated second ((Tick/Second))
hostSeconds                                   4237.11                       # Real time elapsed on the host (Second)
hostTickRate                                239498168                       # The number of ticks simulated per host second (ticks/s) ((Tick/Second))
hostMemory                                    9050404                       # Number of bytes of host memory used (Byte)
simInsts                                    658484119                       # Number of instructions simulated (Count)
simOps                                     1506672630                       # Number of ops (including micro ops) simulated (Count)
hostInstRate                                   155409                       # Simulator instruction rate (inst/s) ((Count/Second))
hostOpRate                                     355589                       # Simulator op (including micro ops) rate (op/s) ((Count/Second))
system.clk_domain.clock                          1000                       # Clock period in ticks (Tick)
system.clk_domain.voltage_domain.voltage            1                       # Voltage in Volts (Volt)
system.cpu.numCycles                       1014781205                       # Number of cpu cycles simulated (Cycle)
system.cpu.cpi                               1.541087                       # CPI: cycles per instruction (core level) ((Cycle/Count))
system.cpu.ipc                               0.648893                       # IPC: instructions per cycle (core level) ((Count/Cycle))
system.cpu.numWorkItemsStarted                      0                       # Number of work items this cpu started (Count)
system.cpu.numWorkItemsCompleted                    0                       # Number of work items this cpu completed (Count)
system.cpu.instsAdded                      1999097034                       # Number of instructions added to the IQ (excludes non-spec) (Count)
system.cpu.nonSpecInstsAdded                    13833                       # Number of non-speculative instructions added to the IQ (Count)
system.cpu.instsIssued                     1766583623                       # Number of instructions issued (Count)
system.cpu.squashedInstsIssued                 628915                       # Number of squashed instructions issued (Count)
system.cpu.squashedInstsExamined            492438187                       # Number of squashed instructions iterated over during squash; mainly for profiling (Count)
system.cpu.squashedOperandsExamined        1151371180                       # Number of squashed operands that are examined and possibly removed from graph (Count)
system.cpu.squashedNonSpecRemoved                6990                       # Number of squashed non-spec instructions that were removed (Count)
system.cpu.numIssuedDist::samples          1012022204                       # Number of insts issued each cycle (Count)
system.cpu.numIssuedDist::mean               1.745598                       # Number of insts issued each cycle (Count)
system.cpu.numIssuedDist::stdev              2.197536                       # Number of insts issued each cycle (Count)
system.cpu.numIssuedDist::underflows                0      0.00%      0.00% # Number of insts issued each cycle (Count)
system.cpu.numIssuedDist::0                 493822426     48.80%     48.80% # Number of insts issued each cycle (Count)
system.cpu.numIssuedDist::1                 113399657     11.21%     60.00% # Number of insts issued each cycle (Count)
system.cpu.numIssuedDist::2                  82953065      8.20%     68.20% # Number of insts issued each cycle (Count)
system.cpu.numIssuedDist::3                  75848751      7.49%     75.69% # Number of insts issued each cycle (Count)
system.cpu.numIssuedDist::4                 113020829     11.17%     86.86% # Number of insts issued each cycle (Count)
system.cpu.numIssuedDist::5                  46055283      4.55%     91.41% # Number of insts issued each cycle (Count)
system.cpu.numIssuedDist::6                  45232975      4.47%     95.88% # Number of insts issued each cycle (Count)
system.cpu.numIssuedDist::7                  27539742      2.72%     98.60% # Number of insts issued each cycle (Count)
system.cpu.numIssuedDist::8                  14149476      1.40%    100.00% # Number of insts issued each cycle (Count)
system.cpu.numIssuedDist::overflows                 0      0.00%    100.00% # Number of insts issued each cycle (Count)
system.cpu.numIssuedDist::min_value                 0                       # Number of insts issued each cycle (Count)
system.cpu.numIssuedDist::max_value                 8                       # Number of insts issued each cycle (Count)
system.cpu.numIssuedDist::total            1012022204                       # Number of insts issued each cycle (Count)
system.cpu.statFuBusy::No_OpClass                   0      0.00%      0.00% # attempts to use FU when none available (Count)
system.cpu.statFuBusy::IntAlu                25398933     87.98%     87.98% # attempts to use FU when none available (Count)
system.cpu.statFuBusy::IntMult                      0      0.00%     87.98% # attempts to use FU when none available (Count)
system.cpu.statFuBusy::IntDiv                       0      0.00%     87.98% # attempts to use FU when none available (Count)
system.cpu.statFuBusy::FloatAdd                     0      0.00%     87.98% # attempts to use FU when none available (Count)
system.cpu.statFuBusy::FloatCmp                     0      0.00%     87.98% # attempts to use FU when none available (Count)
system.cpu.statFuBusy::FloatCvt                    14      0.00%     87.98% # attempts to use FU when none available (Count)
system.cpu.statFuBusy::FloatMult                    0      0.00%     87.98% # attempts to use FU when none available (Count)
system.cpu.statFuBusy::FloatMultAcc                 0      0.00%     87.98% # attempts to use FU when none available (Count)
system.cpu.statFuBusy::FloatDiv                     0      0.00%     87.98% # attempts to use FU when none available (Count)
system.cpu.statFuBusy::FloatMisc                    0      0.00%     87.98% # attempts to use FU when none available (Count)
system.cpu.statFuBusy::FloatSqrt                    0      0.00%     87.98% # attempts to use FU when none available (Count)
system.cpu.statFuBusy::SimdAdd                    218      0.00%     87.98% # attempts to use FU when none available (Count)
system.cpu.statFuBusy::SimdAddAcc                   0      0.00%     87.98% # attempts to use FU when none available (Count)
system.cpu.statFuBusy::SimdAlu                 424991      1.47%     89.45% # attempts to use FU when none available (Count)
system.cpu.statFuBusy::SimdCmp                      5      0.00%     89.45% # attempts to use FU when none available (Count)
system.cpu.statFuBusy::SimdCvt                  25861      0.09%     89.54% # attempts to use FU when none available (Count)
system.cpu.statFuBusy::SimdMisc                 20915      0.07%     89.62% # attempts to use FU when none available (Count)
system.cpu.statFuBusy::SimdMult                     0      0.00%     89.62% # attempts to use FU when none available (Count)
system.cpu.statFuBusy::SimdMultAcc                  0      0.00%     89.62% # attempts to use FU when none available (Count)
system.cpu.statFuBusy::SimdMatMultAcc               0      0.00%     89.62% # attempts to use FU when none available (Count)
system.cpu.statFuBusy::SimdShift                 3648      0.01%     89.63% # attempts to use FU when none available (Count)
system.cpu.statFuBusy::SimdShiftAcc                 0      0.00%     89.63% # attempts to use FU when none available (Count)
system.cpu.statFuBusy::SimdDiv                      0      0.00%     89.63% # attempts to use FU when none available (Count)
system.cpu.statFuBusy::SimdSqrt                     0      0.00%     89.63% # attempts to use FU when none available (Count)
system.cpu.statFuBusy::SimdFloatAdd                 0      0.00%     89.63% # attempts to use FU when none available (Count)
system.cpu.statFuBusy::SimdFloatAlu                 0      0.00%     89.63% # attempts to use FU when none available (Count)
system.cpu.statFuBusy::SimdFloatCmp                 0      0.00%     89.63% # attempts to use FU when none available (Count)
system.cpu.statFuBusy::SimdFloatCvt                 0      0.00%     89.63% # attempts to use FU when none available (Count)
system.cpu.statFuBusy::SimdFloatDiv                 0      0.00%     89.63% # attempts to use FU when none available (Count)
system.cpu.statFuBusy::SimdFloatMisc                0      0.00%     89.63% # attempts to use FU when none available (Count)
system.cpu.statFuBusy::SimdFloatMult                0      0.00%     89.63% # attempts to use FU when none available (Count)
system.cpu.statFuBusy::SimdFloatMultAcc             0      0.00%     89.63% # attempts to use FU when none available (Count)
system.cpu.statFuBusy::SimdFloatMatMultAcc            0      0.00%     89.63% # attempts to use FU when none available (Count)
system.cpu.statFuBusy::SimdFloatSqrt                0      0.00%     89.63% # attempts to use FU when none available (Count)
system.cpu.statFuBusy::SimdReduceAdd                0      0.00%     89.63% # attempts to use FU when none available (Count)
system.cpu.statFuBusy::SimdReduceAlu                0      0.00%     89.63% # attempts to use FU when none available (Count)
system.cpu.statFuBusy::SimdReduceCmp                0      0.00%     89.63% # attempts to use FU when none available (Count)
system.cpu.statFuBusy::SimdFloatReduceAdd            0      0.00%     89.63% # attempts to use FU when none available (Count)
system.cpu.statFuBusy::SimdFloatReduceCmp            0      0.00%     89.63% # attempts to use FU when none available (Count)
system.cpu.statFuBusy::SimdAes                      0      0.00%     89.63% # attempts to use FU when none available (Count)
system.cpu.statFuBusy::SimdAesMix                   0      0.00%     89.63% # attempts to use FU when none available (Count)
system.cpu.statFuBusy::SimdSha1Hash                 0      0.00%     89.63% # attempts to use FU when none available (Count)
system.cpu.statFuBusy::SimdSha1Hash2                0      0.00%     89.63% # attempts to use FU when none available (Count)
system.cpu.statFuBusy::SimdSha256Hash               0      0.00%     89.63% # attempts to use FU when none available (Count)
system.cpu.statFuBusy::SimdSha256Hash2              0      0.00%     89.63% # attempts to use FU when none available (Count)
system.cpu.statFuBusy::SimdShaSigma2                0      0.00%     89.63% # attempts to use FU when none available (Count)
system.cpu.statFuBusy::SimdShaSigma3                0      0.00%     89.63% # attempts to use FU when none available (Count)
system.cpu.statFuBusy::SimdPredAlu                  0      0.00%     89.63% # attempts to use FU when none available (Count)
system.cpu.statFuBusy::Matrix                       0      0.00%     89.63% # attempts to use FU when none available (Count)
system.cpu.statFuBusy::MatrixMov                    0      0.00%     89.63% # attempts to use FU when none available (Count)
system.cpu.statFuBusy::MatrixOP                     0      0.00%     89.63% # attempts to use FU when none available (Count)
system.cpu.statFuBusy::MemRead                2025214      7.02%     96.64% # attempts to use FU when none available (Count)
system.cpu.statFuBusy::MemWrite                221739      0.77%     97.41% # attempts to use FU when none available (Count)
system.cpu.statFuBusy::FloatMemRead            324887      1.13%     98.54% # attempts to use FU when none available (Count)
system.cpu.statFuBusy::FloatMemWrite           422401      1.46%    100.00% # attempts to use FU when none available (Count)
system.cpu.statFuBusy::IprAccess                    0      0.00%    100.00% # attempts to use FU when none available (Count)
system.cpu.statFuBusy::InstPrefetch                 0      0.00%    100.00% # attempts to use FU when none available (Count)
system.cpu.statFuBusy::SimdUnitStrideLoad            0      0.00%    100.00% # attempts to use FU when none available (Count)
system.cpu.statFuBusy::SimdUnitStrideStore            0      0.00%    100.00% # attempts to use FU when none available (Count)
system.cpu.statFuBusy::SimdUnitStrideMaskLoad            0      0.00%    100.00% # attempts to use FU when none available (Count)
system.cpu.statFuBusy::SimdUnitStrideMaskStore            0      0.00%    100.00% # attempts to use FU when none available (Count)
system.cpu.statFuBusy::SimdStridedLoad              0      0.00%    100.00% # attempts to use FU when none available (Count)
system.cpu.statFuBusy::SimdStridedStore             0      0.00%    100.00% # attempts to use FU when none available (Count)
system.cpu.statFuBusy::SimdIndexedLoad              0      0.00%    100.00% # attempts to use FU when none available (Count)
system.cpu.statFuBusy::SimdIndexedStore             0      0.00%    100.00% # attempts to use FU when none available (Count)
system.cpu.statFuBusy::SimdWholeRegisterLoad            0      0.00%    100.00% # attempts to use FU when none available (Count)
system.cpu.statFuBusy::SimdWholeRegisterStore            0      0.00%    100.00% # attempts to use FU when none available (Count)
system.cpu.statFuBusy::SimdUnitStrideFaultOnlyFirstLoad            0      0.00%    100.00% # attempts to use FU when none available (Count)
system.cpu.statFuBusy::SimdUnitStrideSegmentedLoad            0      0.00%    100.00% # attempts to use FU when none available (Count)
system.cpu.statFuBusy::SimdUnitStrideSegmentedStore            0      0.00%    100.00% # attempts to use FU when none available (Count)
system.cpu.statFuBusy::SimdExt                      0      0.00%    100.00% # attempts to use FU when none available (Count)
system.cpu.statFuBusy::SimdFloatExt                 0      0.00%    100.00% # attempts to use FU when none available (Count)
system.cpu.statFuBusy::SimdConfig                   0      0.00%    100.00% # attempts to use FU when none available (Count)
system.cpu.statIssuedInstType_0::No_OpClass     31343250      1.77%      1.77% # Number of instructions issued per FU type, per thread (Count)
system.cpu.statIssuedInstType_0::IntAlu    1311393086     74.23%     76.01% # Number of instructions issued per FU type, per thread (Count)
system.cpu.statIssuedInstType_0::IntMult          401      0.00%     76.01% # Number of instructions issued per FU type, per thread (Count)
system.cpu.statIssuedInstType_0::IntDiv      27585014      1.56%     77.57% # Number of instructions issued per FU type, per thread (Count)
system.cpu.statIssuedInstType_0::FloatAdd      2404363      0.14%     77.71% # Number of instructions issued per FU type, per thread (Count)
system.cpu.statIssuedInstType_0::FloatCmp            0      0.00%     77.71% # Number of instructions issued per FU type, per thread (Count)
system.cpu.statIssuedInstType_0::FloatCvt         1294      0.00%     77.71% # Number of instructions issued per FU type, per thread (Count)
system.cpu.statIssuedInstType_0::FloatMult            0      0.00%     77.71% # Number of instructions issued per FU type, per thread (Count)
system.cpu.statIssuedInstType_0::FloatMultAcc            0      0.00%     77.71% # Number of instructions issued per FU type, per thread (Count)
system.cpu.statIssuedInstType_0::FloatDiv            0      0.00%     77.71% # Number of instructions issued per FU type, per thread (Count)
system.cpu.statIssuedInstType_0::FloatMisc            0      0.00%     77.71% # Number of instructions issued per FU type, per thread (Count)
system.cpu.statIssuedInstType_0::FloatSqrt            0      0.00%     77.71% # Number of instructions issued per FU type, per thread (Count)
system.cpu.statIssuedInstType_0::SimdAdd      1695287      0.10%     77.80% # Number of instructions issued per FU type, per thread (Count)
system.cpu.statIssuedInstType_0::SimdAddAcc            0      0.00%     77.80% # Number of instructions issued per FU type, per thread (Count)
system.cpu.statIssuedInstType_0::SimdAlu     11207567      0.63%     78.44% # Number of instructions issued per FU type, per thread (Count)
system.cpu.statIssuedInstType_0::SimdCmp         4650      0.00%     78.44% # Number of instructions issued per FU type, per thread (Count)
system.cpu.statIssuedInstType_0::SimdCvt      5786451      0.33%     78.76% # Number of instructions issued per FU type, per thread (Count)
system.cpu.statIssuedInstType_0::SimdMisc      5207287      0.29%     79.06% # Number of instructions issued per FU type, per thread (Count)
system.cpu.statIssuedInstType_0::SimdMult            0      0.00%     79.06% # Number of instructions issued per FU type, per thread (Count)
system.cpu.statIssuedInstType_0::SimdMultAcc            0      0.00%     79.06% # Number of instructions issued per FU type, per thread (Count)
system.cpu.statIssuedInstType_0::SimdMatMultAcc            0      0.00%     79.06% # Number of instructions issued per FU type, per thread (Count)
system.cpu.statIssuedInstType_0::SimdShift      1690429      0.10%     79.15% # Number of instructions issued per FU type, per thread (Count)
system.cpu.statIssuedInstType_0::SimdShiftAcc            0      0.00%     79.15% # Number of instructions issued per FU type, per thread (Count)
system.cpu.statIssuedInstType_0::SimdDiv            0      0.00%     79.15% # Number of instructions issued per FU type, per thread (Count)
system.cpu.statIssuedInstType_0::SimdSqrt            0      0.00%     79.15% # Number of instructions issued per FU type, per thread (Count)
system.cpu.statIssuedInstType_0::SimdFloatAdd          173      0.00%     79.15% # Number of instructions issued per FU type, per thread (Count)
system.cpu.statIssuedInstType_0::SimdFloatAlu            0      0.00%     79.15% # Number of instructions issued per FU type, per thread (Count)
system.cpu.statIssuedInstType_0::SimdFloatCmp            0      0.00%     79.15% # Number of instructions issued per FU type, per thread (Count)
system.cpu.statIssuedInstType_0::SimdFloatCvt         1130      0.00%     79.15% # Number of instructions issued per FU type, per thread (Count)
system.cpu.statIssuedInstType_0::SimdFloatDiv          177      0.00%     79.15% # Number of instructions issued per FU type, per thread (Count)
system.cpu.statIssuedInstType_0::SimdFloatMisc            0      0.00%     79.15% # Number of instructions issued per FU type, per thread (Count)
system.cpu.statIssuedInstType_0::SimdFloatMult           57      0.00%     79.15% # Number of instructions issued per FU type, per thread (Count)
system.cpu.statIssuedInstType_0::SimdFloatMultAcc            0      0.00%     79.15% # Number of instructions issued per FU type, per thread (Count)
system.cpu.statIssuedInstType_0::SimdFloatMatMultAcc            0      0.00%     79.15% # Number of instructions issued per FU type, per thread (Count)
system.cpu.statIssuedInstType_0::SimdFloatSqrt            0      0.00%     79.15% # Number of instructions issued per FU type, per thread (Count)
system.cpu.statIssuedInstType_0::SimdReduceAdd            0      0.00%     79.15% # Number of instructions issued per FU type, per thread (Count)
system.cpu.statIssuedInstType_0::SimdReduceAlu            0      0.00%     79.15% # Number of instructions issued per FU type, per thread (Count)
system.cpu.statIssuedInstType_0::SimdReduceCmp            0      0.00%     79.15% # Number of instructions issued per FU type, per thread (Count)
system.cpu.statIssuedInstType_0::SimdFloatReduceAdd            0      0.00%     79.15% # Number of instructions issued per FU type, per thread (Count)
system.cpu.statIssuedInstType_0::SimdFloatReduceCmp            0      0.00%     79.15% # Number of instructions issued per FU type, per thread (Count)
system.cpu.statIssuedInstType_0::SimdAes            0      0.00%     79.15% # Number of instructions issued per FU type, per thread (Count)
system.cpu.statIssuedInstType_0::SimdAesMix            0      0.00%     79.15% # Number of instructions issued per FU type, per thread (Count)
system.cpu.statIssuedInstType_0::SimdSha1Hash            0      0.00%     79.15% # Number of instructions issued per FU type, per thread (Count)
system.cpu.statIssuedInstType_0::SimdSha1Hash2            0      0.00%     79.15% # Number of instructions issued per FU type, per thread (Count)
system.cpu.statIssuedInstType_0::SimdSha256Hash            0      0.00%     79.15% # Number of instructions issued per FU type, per thread (Count)
system.cpu.statIssuedInstType_0::SimdSha256Hash2            0      0.00%     79.15% # Number of instructions issued per FU type, per thread (Count)
system.cpu.statIssuedInstType_0::SimdShaSigma2            0      0.00%     79.15% # Number of instructions issued per FU type, per thread (Count)
system.cpu.statIssuedInstType_0::SimdShaSigma3            0      0.00%     79.15% # Number of instructions issued per FU type, per thread (Count)
system.cpu.statIssuedInstType_0::SimdPredAlu            0      0.00%     79.15% # Number of instructions issued per FU type, per thread (Count)
system.cpu.statIssuedInstType_0::Matrix             0      0.00%     79.15% # Number of instructions issued per FU type, per thread (Count)
system.cpu.statIssuedInstType_0::MatrixMov            0      0.00%     79.15% # Number of instructions issued per FU type, per thread (Count)
system.cpu.statIssuedInstType_0::MatrixOP            0      0.00%     79.15% # Number of instructions issued per FU type, per thread (Count)
system.cpu.statIssuedInstType_0::MemRead    176666803     10.00%     89.15% # Number of instructions issued per FU type, per thread (Count)
system.cpu.statIssuedInstType_0::MemWrite    164230232      9.30%     98.45% # Number of instructions issued per FU type, per thread (Count)
system.cpu.statIssuedInstType_0::FloatMemRead     13621308      0.77%     99.22% # Number of instructions issued per FU type, per thread (Count)
system.cpu.statIssuedInstType_0::FloatMemWrite     13744664      0.78%    100.00% # Number of instructions issued per FU type, per thread (Count)
system.cpu.statIssuedInstType_0::IprAccess            0      0.00%    100.00% # Number of instructions issued per FU type, per thread (Count)
system.cpu.statIssuedInstType_0::InstPrefetch            0      0.00%    100.00% # Number of instructions issued per FU type, per thread (Count)
system.cpu.statIssuedInstType_0::SimdUnitStrideLoad            0      0.00%    100.00% # Number of instructions issued per FU type, per thread (Count)
system.cpu.statIssuedInstType_0::SimdUnitStrideStore            0      0.00%    100.00% # Number of instructions issued per FU type, per thread (Count)
system.cpu.statIssuedInstType_0::SimdUnitStrideMaskLoad            0      0.00%    100.00% # Number of instructions issued per FU type, per thread (Count)
system.cpu.statIssuedInstType_0::SimdUnitStrideMaskStore            0      0.00%    100.00% # Number of instructions issued per FU type, per thread (Count)
system.cpu.statIssuedInstType_0::SimdStridedLoad            0      0.00%    100.00% # Number of instructions issued per FU type, per thread (Count)
system.cpu.statIssuedInstType_0::SimdStridedStore            0      0.00%    100.00% # Number of instructions issued per FU type, per thread (Count)
system.cpu.statIssuedInstType_0::SimdIndexedLoad            0      0.00%    100.00% # Number of instructions issued per FU type, per thread (Count)
system.cpu.statIssuedInstType_0::SimdIndexedStore            0      0.00%    100.00% # Number of instructions issued per FU type, per thread (Count)
system.cpu.statIssuedInstType_0::SimdWholeRegisterLoad            0      0.00%    100.00% # Number of instructions issued per FU type, per thread (Count)
system.cpu.statIssuedInstType_0::SimdWholeRegisterStore            0      0.00%    100.00% # Number of instructions issued per FU type, per thread (Count)
system.cpu.statIssuedInstType_0::SimdUnitStrideFaultOnlyFirstLoad            0      0.00%    100.00% # Number of instructions issued per FU type, per thread (Count)
system.cpu.statIssuedInstType_0::SimdUnitStrideSegmentedLoad            0      0.00%    100.00% # Number of instructions issued per FU type, per thread (Count)
system.cpu.statIssuedInstType_0::SimdUnitStrideSegmentedStore            0      0.00%    100.00% # Number of instructions issued per FU type, per thread (Count)
system.cpu.statIssuedInstType_0::SimdExt            0      0.00%    100.00% # Number of instructions issued per FU type, per thread (Count)
system.cpu.statIssuedInstType_0::SimdFloatExt            0      0.00%    100.00% # Number of instructions issued per FU type, per thread (Count)
system.cpu.statIssuedInstType_0::SimdConfig            0      0.00%    100.00% # Number of instructions issued per FU type, per thread (Count)
system.cpu.statIssuedInstType_0::total     1766583623                       # Number of instructions issued per FU type, per thread (Count)
system.cpu.issueRate                         1.740852                       # Inst issue rate ((Count/Cycle))
system.cpu.fuBusy                            28868826                       # FU busy when requested (Count)
system.cpu.fuBusyRate                        0.016342                       # FU busy rate (busy events/executed inst) ((Count/Count))
system.cpu.intInstQueueReads               4456006906                       # Number of integer instruction queue reads (Count)
system.cpu.intInstQueueWrites              2392290557                       # Number of integer instruction queue writes (Count)
system.cpu.intInstQueueWakeupAccesses      1691058078                       # Number of integer instruction queue wakeup accesses (Count)
system.cpu.fpInstQueueReads                 118680285                       # Number of floating instruction queue reads (Count)
system.cpu.fpInstQueueWrites                 99267627                       # Number of floating instruction queue writes (Count)
system.cpu.fpInstQueueWakeupAccesses         56433109                       # Number of floating instruction queue wakeup accesses (Count)
system.cpu.vecInstQueueReads                        0                       # Number of vector instruction queue reads (Count)
system.cpu.vecInstQueueWrites                       0                       # Number of vector instruction queue writes (Count)
system.cpu.vecInstQueueWakeupAccesses               0                       # Number of vector instruction queue wakeup accesses (Count)
system.cpu.intAluAccesses                  1704192564                       # Number of integer alu accesses (Count)
system.cpu.fpAluAccesses                     59916635                       # Number of floating point alu accesses (Count)
system.cpu.vecAluAccesses                           0                       # Number of vector alu accesses (Count)
system.cpu.numSquashedInsts                  10861513                       # Number of squashed instructions skipped in execute (Count)
system.cpu.numSwp                                   0                       # Number of swp insts executed (Count)
system.cpu.timesIdled                          436982                       # Number of times that the entire CPU went into an idle state and unscheduled itself (Count)
system.cpu.idleCycles                         2759001                       # Total number of cycles that the CPU has spent unscheduled due to idling (Cycle)
system.cpu.MemDepUnit__0.insertedLoads      212878406                       # Number of loads inserted to the mem dependence unit. (Count)
system.cpu.MemDepUnit__0.insertedStores     206642216                       # Number of stores inserted to the mem dependence unit. (Count)
system.cpu.MemDepUnit__0.conflictingLoads      8192848                       # Number of conflicting loads. (Count)
system.cpu.MemDepUnit__0.conflictingStores      7536038                       # Number of conflicting stores. (Count)
system.cpu.MemDepUnit__1.insertedLoads              0                       # Number of loads inserted to the mem dependence unit. (Count)
system.cpu.MemDepUnit__1.insertedStores             0                       # Number of stores inserted to the mem dependence unit. (Count)
system.cpu.MemDepUnit__1.conflictingLoads            0                       # Number of conflicting loads. (Count)
system.cpu.MemDepUnit__1.conflictingStores            0                       # Number of conflicting stores. (Count)
system.cpu.MemDepUnit__2.insertedLoads              0                       # Number of loads inserted to the mem dependence unit. (Count)
system.cpu.MemDepUnit__2.insertedStores             0                       # Number of stores inserted to the mem dependence unit. (Count)
system.cpu.MemDepUnit__2.conflictingLoads            0                       # Number of conflicting loads. (Count)
system.cpu.MemDepUnit__2.conflictingStores            0                       # Number of conflicting stores. (Count)
system.cpu.MemDepUnit__3.insertedLoads              0                       # Number of loads inserted to the mem dependence unit. (Count)
system.cpu.MemDepUnit__3.insertedStores             0                       # Number of stores inserted to the mem dependence unit. (Count)
system.cpu.MemDepUnit__3.conflictingLoads            0                       # Number of conflicting loads. (Count)
system.cpu.MemDepUnit__3.conflictingStores            0                       # Number of conflicting stores. (Count)
system.cpu.branchPred.lookups_0::NoBranch       618065      0.21%      0.21% # Number of BP lookups (Count)
system.cpu.branchPred.lookups_0::Return      12651364      4.28%      4.48% # Number of BP lookups (Count)
system.cpu.branchPred.lookups_0::CallDirect     12751959      4.31%      8.79% # Number of BP lookups (Count)
system.cpu.branchPred.lookups_0::CallIndirect         1451      0.00%      8.79% # Number of BP lookups (Count)
system.cpu.branchPred.lookups_0::DirectCond    250424349     84.62%     93.41% # Number of BP lookups (Count)
system.cpu.branchPred.lookups_0::DirectUncond      8519441      2.88%     96.29% # Number of BP lookups (Count)
system.cpu.branchPred.lookups_0::IndirectCond            0      0.00%     96.29% # Number of BP lookups (Count)
system.cpu.branchPred.lookups_0::IndirectUncond     10968792      3.71%    100.00% # Number of BP lookups (Count)
system.cpu.branchPred.lookups_0::total      295935421                       # Number of BP lookups (Count)
system.cpu.branchPred.squashes_0::NoBranch       558786      0.54%      0.54% # Number of branches that got squashed (completely removed) as an earlier branch was mispredicted. (Count)
system.cpu.branchPred.squashes_0::Return      3728498      3.60%      4.14% # Number of branches that got squashed (completely removed) as an earlier branch was mispredicted. (Count)
system.cpu.branchPred.squashes_0::CallDirect      3829691      3.70%      7.84% # Number of branches that got squashed (completely removed) as an earlier branch was mispredicted. (Count)
system.cpu.branchPred.squashes_0::CallIndirect          848      0.00%      7.85% # Number of branches that got squashed (completely removed) as an earlier branch was mispredicted. (Count)
system.cpu.branchPred.squashes_0::DirectCond     88522138     85.55%     93.39% # Number of branches that got squashed (completely removed) as an earlier branch was mispredicted. (Count)
system.cpu.branchPred.squashes_0::DirectUncond      2836453      2.74%     96.14% # Number of branches that got squashed (completely removed) as an earlier branch was mispredicted. (Count)
system.cpu.branchPred.squashes_0::IndirectCond            0      0.00%     96.14% # Number of branches that got squashed (completely removed) as an earlier branch was mispredicted. (Count)
system.cpu.branchPred.squashes_0::IndirectUncond      3998926      3.86%    100.00% # Number of branches that got squashed (completely removed) as an earlier branch was mispredicted. (Count)
system.cpu.branchPred.squashes_0::total     103475340                       # Number of branches that got squashed (completely removed) as an earlier branch was mispredicted. (Count)
system.cpu.branchPred.corrected_0::NoBranch       196271      1.98%      1.98% # Number of branches that got corrected but not yet commited. Branches get corrected by decode or after execute. Also a branch misprediction can be detected out-of-order. Therefore, a corrected branch might not end up beeing committed in case an even earlier branch was mispredicted (Count)
system.cpu.branchPred.corrected_0::Return           24      0.00%      1.98% # Number of branches that got corrected but not yet commited. Branches get corrected by decode or after execute. Also a branch misprediction can be detected out-of-order. Therefore, a corrected branch might not end up beeing committed in case an even earlier branch was mispredicted (Count)
system.cpu.branchPred.corrected_0::CallDirect       161932      1.63%      3.61% # Number of branches that got corrected but not yet commited. Branches get corrected by decode or after execute. Also a branch misprediction can be detected out-of-order. Therefore, a corrected branch might not end up beeing committed in case an even earlier branch was mispredicted (Count)
system.cpu.branchPred.corrected_0::CallIndirect          252      0.00%      3.61% # Number of branches that got corrected but not yet commited. Branches get corrected by decode or after execute. Also a branch misprediction can be detected out-of-order. Therefore, a corrected branch might not end up beeing committed in case an even earlier branch was mispredicted (Count)
system.cpu.branchPred.corrected_0::DirectCond      8565171     86.31%     89.92% # Number of branches that got corrected but not yet commited. Branches get corrected by decode or after execute. Also a branch misprediction can be detected out-of-order. Therefore, a corrected branch might not end up beeing committed in case an even earlier branch was mispredicted (Count)
system.cpu.branchPred.corrected_0::DirectUncond       526480      5.31%     95.22% # Number of branches that got corrected but not yet commited. Branches get corrected by decode or after execute. Also a branch misprediction can be detected out-of-order. Therefore, a corrected branch might not end up beeing committed in case an even earlier branch was mispredicted (Count)
system.cpu.branchPred.corrected_0::IndirectCond            0      0.00%     95.22% # Number of branches that got corrected but not yet commited. Branches get corrected by decode or after execute. Also a branch misprediction can be detected out-of-order. Therefore, a corrected branch might not end up beeing committed in case an even earlier branch was mispredicted (Count)
system.cpu.branchPred.corrected_0::IndirectUncond       473950      4.78%    100.00% # Number of branches that got corrected but not yet commited. Branches get corrected by decode or after execute. Also a branch misprediction can be detected out-of-order. Therefore, a corrected branch might not end up beeing committed in case an even earlier branch was mispredicted (Count)
system.cpu.branchPred.corrected_0::total      9924080                       # Number of branches that got corrected but not yet commited. Branches get corrected by decode or after execute. Also a branch misprediction can be detected out-of-order. Therefore, a corrected branch might not end up beeing committed in case an even earlier branch was mispredicted (Count)
system.cpu.branchPred.earlyResteers_0::NoBranch            0                       # Number of branches that got redirected after decode. (Count)
system.cpu.branchPred.earlyResteers_0::Return            0                       # Number of branches that got redirected after decode. (Count)
system.cpu.branchPred.earlyResteers_0::CallDirect            0                       # Number of branches that got redirected after decode. (Count)
system.cpu.branchPred.earlyResteers_0::CallIndirect            0                       # Number of branches that got redirected after decode. (Count)
system.cpu.branchPred.earlyResteers_0::DirectCond            0                       # Number of branches that got redirected after decode. (Count)
system.cpu.branchPred.earlyResteers_0::DirectUncond            0                       # Number of branches that got redirected after decode. (Count)
system.cpu.branchPred.earlyResteers_0::IndirectCond            0                       # Number of branches that got redirected after decode. (Count)
system.cpu.branchPred.earlyResteers_0::IndirectUncond            0                       # Number of branches that got redirected after decode. (Count)
system.cpu.branchPred.earlyResteers_0::total            0                       # Number of branches that got redirected after decode. (Count)
system.cpu.branchPred.committed_0::NoBranch        59279      0.03%      0.03% # Number of branches finally committed  (Count)
system.cpu.branchPred.committed_0::Return      8922865      4.64%      4.67% # Number of branches finally committed  (Count)
system.cpu.branchPred.committed_0::CallDirect      8922267      4.64%      9.30% # Number of branches finally committed  (Count)
system.cpu.branchPred.committed_0::CallIndirect          603      0.00%      9.30% # Number of branches finally committed  (Count)
system.cpu.branchPred.committed_0::DirectCond    161902211     84.12%     93.43% # Number of branches finally committed  (Count)
system.cpu.branchPred.committed_0::DirectUncond      5682988      2.95%     96.38% # Number of branches finally committed  (Count)
system.cpu.branchPred.committed_0::IndirectCond            0      0.00%     96.38% # Number of branches finally committed  (Count)
system.cpu.branchPred.committed_0::IndirectUncond      6969866      3.62%    100.00% # Number of branches finally committed  (Count)
system.cpu.branchPred.committed_0::total    192460079                       # Number of branches finally committed  (Count)
system.cpu.branchPred.mispredicted_0::NoBranch        59279      0.67%      0.67% # Number of committed branches that were mispredicted. (Count)
system.cpu.branchPred.mispredicted_0::Return            0      0.00%      0.67% # Number of committed branches that were mispredicted. (Count)
system.cpu.branchPred.mispredicted_0::CallDirect       125814      1.41%      2.08% # Number of committed branches that were mispredicted. (Count)
system.cpu.branchPred.mispredicted_0::CallIndirect          205      0.00%      2.08% # Number of committed branches that were mispredicted. (Count)
system.cpu.branchPred.mispredicted_0::DirectCond      8170887     91.76%     93.84% # Number of committed branches that were mispredicted. (Count)
system.cpu.branchPred.mispredicted_0::DirectUncond       154929      1.74%     95.58% # Number of committed branches that were mispredicted. (Count)
system.cpu.branchPred.mispredicted_0::IndirectCond            0      0.00%     95.58% # Number of committed branches that were mispredicted. (Count)
system.cpu.branchPred.mispredicted_0::IndirectUncond       393807      4.42%    100.00% # Number of committed branches that were mispredicted. (Count)
system.cpu.branchPred.mispredicted_0::total      8904921                       # Number of committed branches that were mispredicted. (Count)
system.cpu.branchPred.targetProvider_0::NoTarget     91132499     30.79%     30.79% # The component providing the target for taken branches (Count)
system.cpu.branchPred.targetProvider_0::BTB    183186712     61.90%     92.70% # The component providing the target for taken branches (Count)
system.cpu.branchPred.targetProvider_0::RAS     12651361      4.28%     96.97% # The component providing the target for taken branches (Count)
system.cpu.branchPred.targetProvider_0::Indirect      8964849      3.03%    100.00% # The component providing the target for taken branches (Count)
system.cpu.branchPred.targetProvider_0::total    295935421                       # The component providing the target for taken branches (Count)
system.cpu.branchPred.targetWrong_0::NoBranch      3446985     51.23%     51.23% # Number of branches where the target was incorrect or not available at prediction time. (Count)
system.cpu.branchPred.targetWrong_0::Return      3089908     45.92%     97.16% # Number of branches where the target was incorrect or not available at prediction time. (Count)
system.cpu.branchPred.targetWrong_0::CallDirect           23      0.00%     97.16% # Number of branches where the target was incorrect or not available at prediction time. (Count)
system.cpu.branchPred.targetWrong_0::CallIndirect       191383      2.84%    100.00% # Number of branches where the target was incorrect or not available at prediction time. (Count)
system.cpu.branchPred.targetWrong_0::DirectCond            0      0.00%    100.00% # Number of branches where the target was incorrect or not available at prediction time. (Count)
system.cpu.branchPred.targetWrong_0::DirectUncond            0      0.00%    100.00% # Number of branches where the target was incorrect or not available at prediction time. (Count)
system.cpu.branchPred.targetWrong_0::IndirectCond            0      0.00%    100.00% # Number of branches where the target was incorrect or not available at prediction time. (Count)
system.cpu.branchPred.targetWrong_0::IndirectUncond            0      0.00%    100.00% # Number of branches where the target was incorrect or not available at prediction time. (Count)
system.cpu.branchPred.targetWrong_0::total      6728299                       # Number of branches where the target was incorrect or not available at prediction time. (Count)
system.cpu.branchPred.condPredicted         251042414                       # Number of conditional branches predicted (Count)
system.cpu.branchPred.condPredictedTaken    165898476                       # Number of conditional branches predicted as taken (Count)
system.cpu.branchPred.condIncorrect           9924080                       # Number of conditional branches incorrect (Count)
system.cpu.branchPred.predTakenBTBMiss        1048016                       # Number of branches predicted taken but missed in BTB (Count)
system.cpu.branchPred.NotTakenMispredicted      5207860                       # Number branches predicted 'not taken' but turned out to be taken (Count)
system.cpu.branchPred.TakenMispredicted       4716220                       # Number branches predicted taken but are actually not taken (Count)
system.cpu.branchPred.BTBLookups            295935421                       # Number of BTB lookups (Count)
system.cpu.branchPred.BTBUpdates              4537363                       # Number of BTB updates (Count)
system.cpu.branchPred.BTBHits               231540518                       # Number of BTB hits (Count)
system.cpu.branchPred.BTBHitRatio            0.782402                       # BTB Hit Ratio (Ratio)
system.cpu.branchPred.BTBMispredicted         1186136                       # Number BTB mispredictions. No target found or target wrong (Count)
system.cpu.branchPred.indirectLookups        10970243                       # Number of indirect predictor lookups. (Count)
system.cpu.branchPred.indirectHits            8964849                       # Number of indirect target hits. (Count)
system.cpu.branchPred.indirectMisses          2005394                       # Number of indirect misses. (Count)
system.cpu.branchPred.indirectMispredicted            0                       # Number of mispredicted indirect branches. (Count)
system.cpu.branchPred.btb.lookups::NoBranch       618065      0.21%      0.21% # Number of BTB lookups (Count)
system.cpu.branchPred.btb.lookups::Return     12651364      4.28%      4.48% # Number of BTB lookups (Count)
system.cpu.branchPred.btb.lookups::CallDirect     12751959      4.31%      8.79% # Number of BTB lookups (Count)
system.cpu.branchPred.btb.lookups::CallIndirect         1451      0.00%      8.79% # Number of BTB lookups (Count)
system.cpu.branchPred.btb.lookups::DirectCond    250424349     84.62%     93.41% # Number of BTB lookups (Count)
system.cpu.branchPred.btb.lookups::DirectUncond      8519441      2.88%     96.29% # Number of BTB lookups (Count)
system.cpu.branchPred.btb.lookups::IndirectCond            0      0.00%     96.29% # Number of BTB lookups (Count)
system.cpu.branchPred.btb.lookups::IndirectUncond     10968792      3.71%    100.00% # Number of BTB lookups (Count)
system.cpu.branchPred.btb.lookups::total    295935421                       # Number of BTB lookups (Count)
system.cpu.branchPred.btb.misses::NoBranch       146056      0.23%      0.23% # Number of BTB misses (Count)
system.cpu.branchPred.btb.misses::Return     11863193     18.42%     18.65% # Number of BTB misses (Count)
system.cpu.branchPred.btb.misses::CallDirect       172103      0.27%     18.92% # Number of BTB misses (Count)
system.cpu.branchPred.btb.misses::CallIndirect         1451      0.00%     18.92% # Number of BTB misses (Count)
system.cpu.branchPred.btb.misses::DirectCond     40057280     62.21%     81.12% # Number of BTB misses (Count)
system.cpu.branchPred.btb.misses::DirectUncond      1186028      1.84%     82.97% # Number of BTB misses (Count)
system.cpu.branchPred.btb.misses::IndirectCond            0      0.00%     82.97% # Number of BTB misses (Count)
system.cpu.branchPred.btb.misses::IndirectUncond     10968792     17.03%    100.00% # Number of BTB misses (Count)
system.cpu.branchPred.btb.misses::total      64394903                       # Number of BTB misses (Count)
system.cpu.branchPred.btb.updates::NoBranch            0      0.00%      0.00% # Number of BTB updates (Count)
system.cpu.branchPred.btb.updates::Return            0      0.00%      0.00% # Number of BTB updates (Count)
system.cpu.branchPred.btb.updates::CallDirect       161932      3.57%      3.57% # Number of BTB updates (Count)
system.cpu.branchPred.btb.updates::CallIndirect            0      0.00%      3.57% # Number of BTB updates (Count)
system.cpu.branchPred.btb.updates::DirectCond      3848951     84.83%     88.40% # Number of BTB updates (Count)
system.cpu.branchPred.btb.updates::DirectUncond       526480     11.60%    100.00% # Number of BTB updates (Count)
system.cpu.branchPred.btb.updates::IndirectCond            0      0.00%    100.00% # Number of BTB updates (Count)
system.cpu.branchPred.btb.updates::IndirectUncond            0      0.00%    100.00% # Number of BTB updates (Count)
system.cpu.branchPred.btb.updates::total      4537363                       # Number of BTB updates (Count)
system.cpu.branchPred.btb.mispredict::NoBranch            0      0.00%      0.00% # Number of BTB mispredictions. No target found or target wrong. (Count)
system.cpu.branchPred.btb.mispredict::Return            0      0.00%      0.00% # Number of BTB mispredictions. No target found or target wrong. (Count)
system.cpu.branchPred.btb.mispredict::CallDirect       161932      3.57%      3.57% # Number of BTB mispredictions. No target found or target wrong. (Count)
system.cpu.branchPred.btb.mispredict::CallIndirect            0      0.00%      3.57% # Number of BTB mispredictions. No target found or target wrong. (Count)
system.cpu.branchPred.btb.mispredict::DirectCond      3848951     84.83%     88.40% # Number of BTB mispredictions. No target found or target wrong. (Count)
system.cpu.branchPred.btb.mispredict::DirectUncond       526480     11.60%    100.00% # Number of BTB mispredictions. No target found or target wrong. (Count)
system.cpu.branchPred.btb.mispredict::IndirectCond            0      0.00%    100.00% # Number of BTB mispredictions. No target found or target wrong. (Count)
system.cpu.branchPred.btb.mispredict::IndirectUncond            0      0.00%    100.00% # Number of BTB mispredictions. No target found or target wrong. (Count)
system.cpu.branchPred.btb.mispredict::total      4537363                       # Number of BTB mispredictions. No target found or target wrong. (Count)
system.cpu.branchPred.btb.power_state.pwrStateResidencyTicks::UNDEFINED 1014781204000                       # Cumulative time (in ticks) in various power states (Tick)
system.cpu.branchPred.indirectBranchPred.lookups     10970243                       # Number of lookups (Count)
system.cpu.branchPred.indirectBranchPred.hits      8964849                       # Number of hits of a tag (Count)
system.cpu.branchPred.indirectBranchPred.misses      2005394                       # Number of misses (Count)
system.cpu.branchPred.indirectBranchPred.targetRecords       474202                       # Number of targets that where recorded/installed in the cache (Count)
system.cpu.branchPred.indirectBranchPred.indirectRecords     11444445                       # Number of indirect branches/calls recorded in the indirect hist (Count)
system.cpu.branchPred.indirectBranchPred.speculativeOverflows            2                       # Number of times more than the allowed capacity for speculative branches/calls where in flight and destroy the path history (Count)
system.cpu.branchPred.ras.pushes             16481908                       # Number of times a PC was pushed onto the RAS (Count)
system.cpu.branchPred.ras.pops               16481903                       # Number of times a PC was poped from the RAS (Count)
system.cpu.branchPred.ras.squashes            7559037                       # Number of times the stack operation was squashed due to wrong speculation. (Count)
system.cpu.branchPred.ras.used                8922865                       # Number of times the RAS is the provider (Count)
system.cpu.branchPred.ras.correct             8922865                       # Number of times the RAS is the provider and the prediction is correct (Count)
system.cpu.branchPred.ras.incorrect                 0                       # Number of times the RAS is the provider and the prediction is wrong (Count)
system.cpu.commit.commitSquashedInsts       492560710                       # The number of squashed insts skipped by commit (Count)
system.cpu.commit.commitNonSpecStalls            6843                       # The number of times commit has been forced to stall to communicate backwards (Count)
system.cpu.commit.branchMispredicts           8830403                       # The number of times a branch was mispredicted (Count)
system.cpu.commit.numCommittedDist::samples    945958422                       # Number of insts commited each cycle (Count)
system.cpu.commit.numCommittedDist::mean     1.592747                       # Number of insts commited each cycle (Count)
system.cpu.commit.numCommittedDist::stdev     2.545793                       # Number of insts commited each cycle (Count)
system.cpu.commit.numCommittedDist::underflows            0      0.00%      0.00% # Number of insts commited each cycle (Count)
system.cpu.commit.numCommittedDist::0       566838801     59.92%     59.92% # Number of insts commited each cycle (Count)
system.cpu.commit.numCommittedDist::1        85646197      9.05%     68.98% # Number of insts commited each cycle (Count)
system.cpu.commit.numCommittedDist::2        48633774      5.14%     74.12% # Number of insts commited each cycle (Count)
system.cpu.commit.numCommittedDist::3        59175639      6.26%     80.37% # Number of insts commited each cycle (Count)
system.cpu.commit.numCommittedDist::4        68888889      7.28%     87.66% # Number of insts commited each cycle (Count)
system.cpu.commit.numCommittedDist::5        13573679      1.43%     89.09% # Number of insts commited each cycle (Count)
system.cpu.commit.numCommittedDist::6         6698920      0.71%     89.80% # Number of insts commited each cycle (Count)
system.cpu.commit.numCommittedDist::7         9405687      0.99%     90.79% # Number of insts commited each cycle (Count)
system.cpu.commit.numCommittedDist::8        87096836      9.21%    100.00% # Number of insts commited each cycle (Count)
system.cpu.commit.numCommittedDist::overflows            0      0.00%    100.00% # Number of insts commited each cycle (Count)
system.cpu.commit.numCommittedDist::min_value            0                       # Number of insts commited each cycle (Count)
system.cpu.commit.numCommittedDist::max_value            8                       # Number of insts commited each cycle (Count)
system.cpu.commit.numCommittedDist::total    945958422                       # Number of insts commited each cycle (Count)
system.cpu.commit.amos                              0                       # Number of atomic instructions committed (Count)
system.cpu.commit.membars                        4016                       # Number of memory barriers committed (Count)
system.cpu.commit.functionCalls               8922870                       # Number of function calls committed. (Count)
system.cpu.commit.committedInstType_0::No_OpClass     26301404      1.75%      1.75% # Class of committed instruction (Count)
system.cpu.commit.committedInstType_0::IntAlu   1118254943     74.22%     75.97% # Class of committed instruction (Count)
system.cpu.commit.committedInstType_0::IntMult          206      0.00%     75.97% # Class of committed instruction (Count)
system.cpu.commit.committedInstType_0::IntDiv     23588978      1.57%     77.53% # Class of committed instruction (Count)
system.cpu.commit.committedInstType_0::FloatAdd      1765303      0.12%     77.65% # Class of committed instruction (Count)
system.cpu.commit.committedInstType_0::FloatCmp            0      0.00%     77.65% # Class of committed instruction (Count)
system.cpu.commit.committedInstType_0::FloatCvt         1248      0.00%     77.65% # Class of committed instruction (Count)
system.cpu.commit.committedInstType_0::FloatMult            0      0.00%     77.65% # Class of committed instruction (Count)
system.cpu.commit.committedInstType_0::FloatMultAcc            0      0.00%     77.65% # Class of committed instruction (Count)
system.cpu.commit.committedInstType_0::FloatDiv            0      0.00%     77.65% # Class of committed instruction (Count)
system.cpu.commit.committedInstType_0::FloatMisc            0      0.00%     77.65% # Class of committed instruction (Count)
system.cpu.commit.committedInstType_0::FloatSqrt            0      0.00%     77.65% # Class of committed instruction (Count)
system.cpu.commit.committedInstType_0::SimdAdd      1365088      0.09%     77.74% # Class of committed instruction (Count)
system.cpu.commit.committedInstType_0::SimdAddAcc            0      0.00%     77.74% # Class of committed instruction (Count)
system.cpu.commit.committedInstType_0::SimdAlu      8215743      0.55%     78.28% # Class of committed instruction (Count)
system.cpu.commit.committedInstType_0::SimdCmp         4620      0.00%     78.28% # Class of committed instruction (Count)
system.cpu.commit.committedInstType_0::SimdCvt      3657064      0.24%     78.53% # Class of committed instruction (Count)
system.cpu.commit.committedInstType_0::SimdMisc      4567883      0.30%     78.83% # Class of committed instruction (Count)
system.cpu.commit.committedInstType_0::SimdMult            0      0.00%     78.83% # Class of committed instruction (Count)
system.cpu.commit.committedInstType_0::SimdMultAcc            0      0.00%     78.83% # Class of committed instruction (Count)
system.cpu.commit.committedInstType_0::SimdMatMultAcc            0      0.00%     78.83% # Class of committed instruction (Count)
system.cpu.commit.committedInstType_0::SimdShift       666152      0.04%     78.88% # Class of committed instruction (Count)
system.cpu.commit.committedInstType_0::SimdShiftAcc            0      0.00%     78.88% # Class of committed instruction (Count)
system.cpu.commit.committedInstType_0::SimdDiv            0      0.00%     78.88% # Class of committed instruction (Count)
system.cpu.commit.committedInstType_0::SimdSqrt            0      0.00%     78.88% # Class of committed instruction (Count)
system.cpu.commit.committedInstType_0::SimdFloatAdd          114      0.00%     78.88% # Class of committed instruction (Count)
system.cpu.commit.committedInstType_0::SimdFloatAlu            0      0.00%     78.88% # Class of committed instruction (Count)
system.cpu.commit.committedInstType_0::SimdFloatCmp            0      0.00%     78.88% # Class of committed instruction (Count)
system.cpu.commit.committedInstType_0::SimdFloatCvt          569      0.00%     78.88% # Class of committed instruction (Count)
system.cpu.commit.committedInstType_0::SimdFloatDiv           57      0.00%     78.88% # Class of committed instruction (Count)
system.cpu.commit.committedInstType_0::SimdFloatMisc            0      0.00%     78.88% # Class of committed instruction (Count)
system.cpu.commit.committedInstType_0::SimdFloatMult           56      0.00%     78.88% # Class of committed instruction (Count)
system.cpu.commit.committedInstType_0::SimdFloatMultAcc            0      0.00%     78.88% # Class of committed instruction (Count)
system.cpu.commit.committedInstType_0::SimdFloatMatMultAcc            0      0.00%     78.88% # Class of committed instruction (Count)
system.cpu.commit.committedInstType_0::SimdFloatSqrt            0      0.00%     78.88% # Class of committed instruction (Count)
system.cpu.commit.committedInstType_0::SimdReduceAdd            0      0.00%     78.88% # Class of committed instruction (Count)
system.cpu.commit.committedInstType_0::SimdReduceAlu            0      0.00%     78.88% # Class of committed instruction (Count)
system.cpu.commit.committedInstType_0::SimdReduceCmp            0      0.00%     78.88% # Class of committed instruction (Count)
system.cpu.commit.committedInstType_0::SimdFloatReduceAdd            0      0.00%     78.88% # Class of committed instruction (Count)
system.cpu.commit.committedInstType_0::SimdFloatReduceCmp            0      0.00%     78.88% # Class of committed instruction (Count)
system.cpu.commit.committedInstType_0::SimdAes            0      0.00%     78.88% # Class of committed instruction (Count)
system.cpu.commit.committedInstType_0::SimdAesMix            0      0.00%     78.88% # Class of committed instruction (Count)
system.cpu.commit.committedInstType_0::SimdSha1Hash            0      0.00%     78.88% # Class of committed instruction (Count)
system.cpu.commit.committedInstType_0::SimdSha1Hash2            0      0.00%     78.88% # Class of committed instruction (Count)
system.cpu.commit.committedInstType_0::SimdSha256Hash            0      0.00%     78.88% # Class of committed instruction (Count)
system.cpu.commit.committedInstType_0::SimdSha256Hash2            0      0.00%     78.88% # Class of committed instruction (Count)
system.cpu.commit.committedInstType_0::SimdShaSigma2            0      0.00%     78.88% # Class of committed instruction (Count)
system.cpu.commit.committedInstType_0::SimdShaSigma3            0      0.00%     78.88% # Class of committed instruction (Count)
system.cpu.commit.committedInstType_0::SimdPredAlu            0      0.00%     78.88% # Class of committed instruction (Count)
system.cpu.commit.committedInstType_0::Matrix            0      0.00%     78.88% # Class of committed instruction (Count)
system.cpu.commit.committedInstType_0::MatrixMov            0      0.00%     78.88% # Class of committed instruction (Count)
system.cpu.commit.committedInstType_0::MatrixOP            0      0.00%     78.88% # Class of committed instruction (Count)
system.cpu.commit.committedInstType_0::MemRead    147288281      9.78%     88.65% # Class of committed instruction (Count)
system.cpu.commit.committedInstType_0::MemWrite    149001503      9.89%     98.54% # Class of committed instruction (Count)
system.cpu.commit.committedInstType_0::FloatMemRead      8623514      0.57%     99.11% # Class of committed instruction (Count)
system.cpu.commit.committedInstType_0::FloatMemWrite     13369904      0.89%    100.00% # Class of committed instruction (Count)
system.cpu.commit.committedInstType_0::IprAccess            0      0.00%    100.00% # Class of committed instruction (Count)
system.cpu.commit.committedInstType_0::InstPrefetch            0      0.00%    100.00% # Class of committed instruction (Count)
system.cpu.commit.committedInstType_0::SimdUnitStrideLoad            0      0.00%    100.00% # Class of committed instruction (Count)
system.cpu.commit.committedInstType_0::SimdUnitStrideStore            0      0.00%    100.00% # Class of committed instruction (Count)
system.cpu.commit.committedInstType_0::SimdUnitStrideMaskLoad            0      0.00%    100.00% # Class of committed instruction (Count)
system.cpu.commit.committedInstType_0::SimdUnitStrideMaskStore            0      0.00%    100.00% # Class of committed instruction (Count)
system.cpu.commit.committedInstType_0::SimdStridedLoad            0      0.00%    100.00% # Class of committed instruction (Count)
system.cpu.commit.committedInstType_0::SimdStridedStore            0      0.00%    100.00% # Class of committed instruction (Count)
system.cpu.commit.committedInstType_0::SimdIndexedLoad            0      0.00%    100.00% # Class of committed instruction (Count)
system.cpu.commit.committedInstType_0::SimdIndexedStore            0      0.00%    100.00% # Class of committed instruction (Count)
system.cpu.commit.committedInstType_0::SimdWholeRegisterLoad            0      0.00%    100.00% # Class of committed instruction (Count)
system.cpu.commit.committedInstType_0::SimdWholeRegisterStore            0      0.00%    100.00% # Class of committed instruction (Count)
system.cpu.commit.committedInstType_0::SimdUnitStrideFaultOnlyFirstLoad            0      0.00%    100.00% # Class of committed instruction (Count)
system.cpu.commit.committedInstType_0::SimdUnitStrideSegmentedLoad            0      0.00%    100.00% # Class of committed instruction (Count)
system.cpu.commit.committedInstType_0::SimdUnitStrideSegmentedStore            0      0.00%    100.00% # Class of committed instruction (Count)
system.cpu.commit.committedInstType_0::SimdExt            0      0.00%    100.00% # Class of committed instruction (Count)
system.cpu.commit.committedInstType_0::SimdFloatExt            0      0.00%    100.00% # Class of committed instruction (Count)
system.cpu.commit.committedInstType_0::SimdConfig            0      0.00%    100.00% # Class of committed instruction (Count)
system.cpu.commit.committedInstType_0::total   1506672630                       # Class of committed instruction (Count)
system.cpu.commit.commitEligibleSamples      87096836                       # number cycles where commit BW limit reached (Cycle)
system.cpu.commitStats0.numInsts            658484119                       # Number of instructions committed (thread level) (Count)
system.cpu.commitStats0.numOps             1506672630                       # Number of ops (including micro ops) committed (thread level) (Count)
system.cpu.commitStats0.numInstsNotNOP      658484119                       # Number of instructions committed excluding NOPs or prefetches (Count)
system.cpu.commitStats0.numOpsNotNOP       1506672630                       # Number of Ops (including micro ops) Simulated (Count)
system.cpu.commitStats0.cpi                  1.541087                       # CPI: cycles per instruction (thread level) ((Cycle/Count))
system.cpu.commitStats0.ipc                  0.648893                       # IPC: instructions per cycle (thread level) ((Count/Cycle))
system.cpu.commitStats0.numMemRefs          318283202                       # Number of memory references committed (Count)
system.cpu.commitStats0.numFpInsts           45000461                       # Number of float instructions (Count)
system.cpu.commitStats0.numIntInsts        1387494840                       # Number of integer instructions (Count)
system.cpu.commitStats0.numLoadInsts        155911795                       # Number of load instructions (Count)
system.cpu.commitStats0.numStoreInsts       162371407                       # Number of store instructions (Count)
system.cpu.commitStats0.numVecInsts                 0                       # Number of vector instructions (Count)
system.cpu.commitStats0.committedInstType::No_OpClass     26301404      1.75%      1.75% # Class of committed instruction. (Count)
system.cpu.commitStats0.committedInstType::IntAlu   1118254943     74.22%     75.97% # Class of committed instruction. (Count)
system.cpu.commitStats0.committedInstType::IntMult          206      0.00%     75.97% # Class of committed instruction. (Count)
system.cpu.commitStats0.committedInstType::IntDiv     23588978      1.57%     77.53% # Class of committed instruction. (Count)
system.cpu.commitStats0.committedInstType::FloatAdd      1765303      0.12%     77.65% # Class of committed instruction. (Count)
system.cpu.commitStats0.committedInstType::FloatCmp            0      0.00%     77.65% # Class of committed instruction. (Count)
system.cpu.commitStats0.committedInstType::FloatCvt         1248      0.00%     77.65% # Class of committed instruction. (Count)
system.cpu.commitStats0.committedInstType::FloatMult            0      0.00%     77.65% # Class of committed instruction. (Count)
system.cpu.commitStats0.committedInstType::FloatMultAcc            0      0.00%     77.65% # Class of committed instruction. (Count)
system.cpu.commitStats0.committedInstType::FloatDiv            0      0.00%     77.65% # Class of committed instruction. (Count)
system.cpu.commitStats0.committedInstType::FloatMisc            0      0.00%     77.65% # Class of committed instruction. (Count)
system.cpu.commitStats0.committedInstType::FloatSqrt            0      0.00%     77.65% # Class of committed instruction. (Count)
system.cpu.commitStats0.committedInstType::SimdAdd      1365088      0.09%     77.74% # Class of committed instruction. (Count)
system.cpu.commitStats0.committedInstType::SimdAddAcc            0      0.00%     77.74% # Class of committed instruction. (Count)
system.cpu.commitStats0.committedInstType::SimdAlu      8215743      0.55%     78.28% # Class of committed instruction. (Count)
system.cpu.commitStats0.committedInstType::SimdCmp         4620      0.00%     78.28% # Class of committed instruction. (Count)
system.cpu.commitStats0.committedInstType::SimdCvt      3657064      0.24%     78.53% # Class of committed instruction. (Count)
system.cpu.commitStats0.committedInstType::SimdMisc      4567883      0.30%     78.83% # Class of committed instruction. (Count)
system.cpu.commitStats0.committedInstType::SimdMult            0      0.00%     78.83% # Class of committed instruction. (Count)
system.cpu.commitStats0.committedInstType::SimdMultAcc            0      0.00%     78.83% # Class of committed instruction. (Count)
system.cpu.commitStats0.committedInstType::SimdMatMultAcc            0      0.00%     78.83% # Class of committed instruction. (Count)
system.cpu.commitStats0.committedInstType::SimdShift       666152      0.04%     78.88% # Class of committed instruction. (Count)
system.cpu.commitStats0.committedInstType::SimdShiftAcc            0      0.00%     78.88% # Class of committed instruction. (Count)
system.cpu.commitStats0.committedInstType::SimdDiv            0      0.00%     78.88% # Class of committed instruction. (Count)
system.cpu.commitStats0.committedInstType::SimdSqrt            0      0.00%     78.88% # Class of committed instruction. (Count)
system.cpu.commitStats0.committedInstType::SimdFloatAdd          114      0.00%     78.88% # Class of committed instruction. (Count)
system.cpu.commitStats0.committedInstType::SimdFloatAlu            0      0.00%     78.88% # Class of committed instruction. (Count)
system.cpu.commitStats0.committedInstType::SimdFloatCmp            0      0.00%     78.88% # Class of committed instruction. (Count)
system.cpu.commitStats0.committedInstType::SimdFloatCvt          569      0.00%     78.88% # Class of committed instruction. (Count)
system.cpu.commitStats0.committedInstType::SimdFloatDiv           57      0.00%     78.88% # Class of committed instruction. (Count)
system.cpu.commitStats0.committedInstType::SimdFloatMisc            0      0.00%     78.88% # Class of committed instruction. (Count)
system.cpu.commitStats0.committedInstType::SimdFloatMult           56      0.00%     78.88% # Class of committed instruction. (Count)
system.cpu.commitStats0.committedInstType::SimdFloatMultAcc            0      0.00%     78.88% # Class of committed instruction. (Count)
system.cpu.commitStats0.committedInstType::SimdFloatMatMultAcc            0      0.00%     78.88% # Class of committed instruction. (Count)
system.cpu.commitStats0.committedInstType::SimdFloatSqrt            0      0.00%     78.88% # Class of committed instruction. (Count)
system.cpu.commitStats0.committedInstType::SimdReduceAdd            0      0.00%     78.88% # Class of committed instruction. (Count)
system.cpu.commitStats0.committedInstType::SimdReduceAlu            0      0.00%     78.88% # Class of committed instruction. (Count)
system.cpu.commitStats0.committedInstType::SimdReduceCmp            0      0.00%     78.88% # Class of committed instruction. (Count)
system.cpu.commitStats0.committedInstType::SimdFloatReduceAdd            0      0.00%     78.88% # Class of committed instruction. (Count)
system.cpu.commitStats0.committedInstType::SimdFloatReduceCmp            0      0.00%     78.88% # Class of committed instruction. (Count)
system.cpu.commitStats0.committedInstType::SimdAes            0      0.00%     78.88% # Class of committed instruction. (Count)
system.cpu.commitStats0.committedInstType::SimdAesMix            0      0.00%     78.88% # Class of committed instruction. (Count)
system.cpu.commitStats0.committedInstType::SimdSha1Hash            0      0.00%     78.88% # Class of committed instruction. (Count)
system.cpu.commitStats0.committedInstType::SimdSha1Hash2            0      0.00%     78.88% # Class of committed instruction. (Count)
system.cpu.commitStats0.committedInstType::SimdSha256Hash            0      0.00%     78.88% # Class of committed instruction. (Count)
system.cpu.commitStats0.committedInstType::SimdSha256Hash2            0      0.00%     78.88% # Class of committed instruction. (Count)
system.cpu.commitStats0.committedInstType::SimdShaSigma2            0      0.00%     78.88% # Class of committed instruction. (Count)
system.cpu.commitStats0.committedInstType::SimdShaSigma3            0      0.00%     78.88% # Class of committed instruction. (Count)
system.cpu.commitStats0.committedInstType::SimdPredAlu            0      0.00%     78.88% # Class of committed instruction. (Count)
system.cpu.commitStats0.committedInstType::Matrix            0      0.00%     78.88% # Class of committed instruction. (Count)
system.cpu.commitStats0.committedInstType::MatrixMov            0      0.00%     78.88% # Class of committed instruction. (Count)
system.cpu.commitStats0.committedInstType::MatrixOP            0      0.00%     78.88% # Class of committed instruction. (Count)
system.cpu.commitStats0.committedInstType::MemRead    147288281      9.78%     88.65% # Class of committed instruction. (Count)
system.cpu.commitStats0.committedInstType::MemWrite    149001503      9.89%     98.54% # Class of committed instruction. (Count)
system.cpu.commitStats0.committedInstType::FloatMemRead      8623514      0.57%     99.11% # Class of committed instruction. (Count)
system.cpu.commitStats0.committedInstType::FloatMemWrite     13369904      0.89%    100.00% # Class of committed instruction. (Count)
system.cpu.commitStats0.committedInstType::IprAccess            0      0.00%    100.00% # Class of committed instruction. (Count)
system.cpu.commitStats0.committedInstType::InstPrefetch            0      0.00%    100.00% # Class of committed instruction. (Count)
system.cpu.commitStats0.committedInstType::SimdUnitStrideLoad            0      0.00%    100.00% # Class of committed instruction. (Count)
system.cpu.commitStats0.committedInstType::SimdUnitStrideStore            0      0.00%    100.00% # Class of committed instruction. (Count)
system.cpu.commitStats0.committedInstType::SimdUnitStrideMaskLoad            0      0.00%    100.00% # Class of committed instruction. (Count)
system.cpu.commitStats0.committedInstType::SimdUnitStrideMaskStore            0      0.00%    100.00% # Class of committed instruction. (Count)
system.cpu.commitStats0.committedInstType::SimdStridedLoad            0      0.00%    100.00% # Class of committed instruction. (Count)
system.cpu.commitStats0.committedInstType::SimdStridedStore            0      0.00%    100.00% # Class of committed instruction. (Count)
system.cpu.commitStats0.committedInstType::SimdIndexedLoad            0      0.00%    100.00% # Class of committed instruction. (Count)
system.cpu.commitStats0.committedInstType::SimdIndexedStore            0      0.00%    100.00% # Class of committed instruction. (Count)
system.cpu.commitStats0.committedInstType::SimdWholeRegisterLoad            0      0.00%    100.00% # Class of committed instruction. (Count)
system.cpu.commitStats0.committedInstType::SimdWholeRegisterStore            0      0.00%    100.00% # Class of committed instruction. (Count)
system.cpu.commitStats0.committedInstType::SimdUnitStrideFaultOnlyFirstLoad            0      0.00%    100.00% # Class of committed instruction. (Count)
system.cpu.commitStats0.committedInstType::SimdUnitStrideSegmentedLoad            0      0.00%    100.00% # Class of committed instruction. (Count)
system.cpu.commitStats0.committedInstType::SimdUnitStrideSegmentedStore            0      0.00%    100.00% # Class of committed instruction. (Count)
system.cpu.commitStats0.committedInstType::SimdExt            0      0.00%    100.00% # Class of committed instruction. (Count)
system.cpu.commitStats0.committedInstType::SimdFloatExt            0      0.00%    100.00% # Class of committed instruction. (Count)
system.cpu.commitStats0.committedInstType::SimdConfig            0      0.00%    100.00% # Class of committed instruction. (Count)
system.cpu.commitStats0.committedInstType::total   1506672630                       # Class of committed instruction. (Count)
system.cpu.commitStats0.committedControl::IsControl    192460079                       # Class of control type instructions committed (Count)
system.cpu.commitStats0.committedControl::IsDirectControl    176507466                       # Class of control type instructions committed (Count)
system.cpu.commitStats0.committedControl::IsIndirectControl     15893334                       # Class of control type instructions committed (Count)
system.cpu.commitStats0.committedControl::IsCondControl    161902211                       # Class of control type instructions committed (Count)
system.cpu.commitStats0.committedControl::IsUncondControl     30498589                       # Class of control type instructions committed (Count)
system.cpu.commitStats0.committedControl::IsCall      8922870                       # Class of control type instructions committed (Count)
system.cpu.commitStats0.committedControl::IsReturn      8922865                       # Class of control type instructions committed (Count)
system.cpu.decode.idleCycles                395431742                       # Number of cycles decode is idle (Cycle)
system.cpu.decode.blockedCycles             307559767                       # Number of cycles decode is blocked (Cycle)
system.cpu.decode.runCycles                 247470264                       # Number of cycles decode is running (Cycle)
system.cpu.decode.unblockCycles              52721037                       # Number of cycles decode is unblocking (Cycle)
system.cpu.decode.squashCycles                8839394                       # Number of cycles decode is squashing (Cycle)
system.cpu.decode.branchResolved            162849927                       # Number of times decode resolved a branch (Count)
system.cpu.decode.branchMispred               1144329                       # Number of times decode detected a branch misprediction (Count)
system.cpu.decode.decodedInsts             2090028213                       # Number of instructions handled by decode (Count)
system.cpu.decode.squashedInsts               3772094                       # Number of squashed instructions handled by decode (Count)
system.cpu.executeStats0.numInsts          1755722110                       # Number of executed instructions (Count)
system.cpu.executeStats0.numNop                     0                       # Number of nop insts executed (Count)
system.cpu.executeStats0.numBranches        211776804                       # Number of branches executed (Count)
system.cpu.executeStats0.numLoadInsts       188474758                       # Number of load instructions executed (Count)
system.cpu.executeStats0.numStoreInsts      176137938                       # Number of stores executed (Count)
system.cpu.executeStats0.instRate            1.730148                       # Inst execution rate ((Count/Cycle))
system.cpu.executeStats0.numCCRegReads     1067336215                       # Number of times the CC registers were read (Count)
system.cpu.executeStats0.numCCRegWrites     560350019                       # Number of times the CC registers were written (Count)
system.cpu.executeStats0.numFpRegReads       74460643                       # Number of times the floating registers were read (Count)
system.cpu.executeStats0.numFpRegWrites      39872790                       # Number of times the floating registers were written (Count)
system.cpu.executeStats0.numIntRegReads    2143982178                       # Number of times the integer registers were read (Count)
system.cpu.executeStats0.numIntRegWrites   1239276564                       # Number of times the integer registers were written (Count)
system.cpu.executeStats0.numMemRefs         364612696                       # Number of memory refs (Count)
system.cpu.executeStats0.numMiscRegReads    652365791                       # Number of times the Misc registers were read (Count)
system.cpu.executeStats0.numMiscRegWrites          702                       # Number of times the Misc registers were written (Count)
system.cpu.executeStats0.numVecAluAccesses            0                       # Number of vector alu accesses (Count)
system.cpu.executeStats0.numDiscardedOps            0                       # Number of ops (including micro ops) which were discarded before commit (Count)
system.cpu.fetch.predictedBranches          204802922                       # Number of branches that fetch has predicted taken (Count)
system.cpu.fetch.cycles                     579805366                       # Number of cycles fetch has run and was not squashing or blocked (Cycle)
system.cpu.fetch.squashCycles                19955018                       # Number of cycles fetch has spent squashing (Cycle)
system.cpu.fetch.tlbCycles                         23                       # Number of cycles fetch has spent waiting for tlb (Cycle)
system.cpu.fetch.miscStallCycles                43843                       # Number of cycles fetch has spent waiting on interrupts, or bad addresses, or out of MSHRs (Cycle)
system.cpu.fetch.pendingTrapStallCycles        384080                       # Number of stall cycles due to pending traps (Cycle)
[...]
system.mem_ctrl.dram.numReads::cpu.l1i.prefetcher         1779                       # Number of read requests responded to by this memory (Count)
system.mem_ctrl.dram.numReads::total             6560                       # Number of read requests responded to by this memory (Count)
system.mem_ctrl.dram.numWrites::writebacks          672                       # Number of write requests responded to by this memory (Count)
system.mem_ctrl.dram.numWrites::total             672                       # Number of write requests responded to by this memory (Count)
system.mem_ctrl.dram.bwRead::cpu.inst       151961091                       # Total read bandwidth from this memory ((Byte/Second))
system.mem_ctrl.dram.bwRead::cpu.data      1444799299                       # Total read bandwidth from this memory ((Byte/Second))
system.mem_ctrl.dram.bwRead::cpu.l1i.prefetcher    594151168                       # Total read bandwidth from this memory ((Byte/Second))
system.mem_ctrl.dram.bwRead::total         2190911558                       # Total read bandwidth from this memory ((Byte/Second))
system.mem_ctrl.dram.bwInstRead::cpu.inst    151961091                       # Instruction read bandwidth from this memory ((Byte/Second))
system.mem_ctrl.dram.bwInstRead::total      151961091                       # Instruction read bandwidth from this memory ((Byte/Second))
system.mem_ctrl.dram.bwWrite::writebacks    224434843                       # Write bandwidth from this memory ((Byte/Second))
system.mem_ctrl.dram.bwWrite::total         224434843                       # Write bandwidth from this memory ((Byte/Second))
system.mem_ctrl.dram.bwTotal::writebacks    224434843                       # Total bandwidth to/from this memory ((Byte/Second))
system.mem_ctrl.dram.bwTotal::cpu.inst      151961091                       # Total bandwidth to/from this memory ((Byte/Second))
system.mem_ctrl.dram.bwTotal::cpu.data     1444799299                       # Total bandwidth to/from this memory ((Byte/Second))
system.mem_ctrl.dram.bwTotal::cpu.l1i.prefetcher    594151168                       # Total bandwidth to/from this memory ((Byte/Second))
system.mem_ctrl.dram.bwTotal::total        2415346400                       # Total bandwidth to/from this memory ((Byte/Second))
system.mem_ctrl.dram.readBursts                  6517                       # Number of DRAM read bursts (Count)
system.mem_ctrl.dram.writeBursts                  673                       # Number of DRAM write bursts (Count)
system.mem_ctrl.dram.perBankRdBursts::0           377                       # Per bank write bursts (Count)
system.mem_ctrl.dram.perBankRdBursts::1           573                       # Per bank write bursts (Count)
system.mem_ctrl.dram.perBankRdBursts::2           535                       # Per bank write bursts (Count)
system.mem_ctrl.dram.perBankRdBursts::3           404                       # Per bank write bursts (Count)
system.mem_ctrl.dram.perBankRdBursts::4           418                       # Per bank write bursts (Count)
system.mem_ctrl.dram.perBankRdBursts::5           500                       # Per bank write bursts (Count)
system.mem_ctrl.dram.perBankRdBursts::6           517                       # Per bank write bursts (Count)
system.mem_ctrl.dram.perBankRdBursts::7           468                       # Per bank write bursts (Count)
system.mem_ctrl.dram.perBankRdBursts::8           285                       # Per bank write bursts (Count)
system.mem_ctrl.dram.perBankRdBursts::9           300                       # Per bank write bursts (Count)
system.mem_ctrl.dram.perBankRdBursts::10          267                       # Per bank write bursts (Count)
system.mem_ctrl.dram.perBankRdBursts::11          312                       # Per bank write bursts (Count)
system.mem_ctrl.dram.perBankRdBursts::12          342                       # Per bank write bursts (Count)
system.mem_ctrl.dram.perBankRdBursts::13          458                       # Per bank write bursts (Count)
system.mem_ctrl.dram.perBankRdBursts::14          373                       # Per bank write bursts (Count)
system.mem_ctrl.dram.perBankRdBursts::15          388                       # Per bank write bursts (Count)
system.mem_ctrl.dram.perBankWrBursts::0             5                       # Per bank write bursts (Count)
system.mem_ctrl.dram.perBankWrBursts::1           103                       # Per bank write bursts (Count)
system.mem_ctrl.dram.perBankWrBursts::2            31                       # Per bank write bursts (Count)
system.mem_ctrl.dram.perBankWrBursts::3             1                       # Per bank write bursts (Count)
system.mem_ctrl.dram.perBankWrBursts::4             0                       # Per bank write bursts (Count)
system.mem_ctrl.dram.perBankWrBursts::5            22                       # Per bank write bursts (Count)
system.mem_ctrl.dram.perBankWrBursts::6            48                       # Per bank write bursts (Count)
system.mem_ctrl.dram.perBankWrBursts::7           102                       # Per bank write bursts (Count)
system.mem_ctrl.dram.perBankWrBursts::8           123                       # Per bank write bursts (Count)
system.mem_ctrl.dram.perBankWrBursts::9            65                       # Per bank write bursts (Count)
system.mem_ctrl.dram.perBankWrBursts::10           25                       # Per bank write bursts (Count)
system.mem_ctrl.dram.perBankWrBursts::11           30                       # Per bank write bursts (Count)
system.mem_ctrl.dram.perBankWrBursts::12            5                       # Per bank write bursts (Count)
system.mem_ctrl.dram.perBankWrBursts::13           85                       # Per bank write bursts (Count)
system.mem_ctrl.dram.perBankWrBursts::14           18                       # Per bank write bursts (Count)
system.mem_ctrl.dram.perBankWrBursts::15           10                       # Per bank write bursts (Count)
system.mem_ctrl.dram.totQLat                 97372957                       # Total ticks spent queuing (Tick)
system.mem_ctrl.dram.totBusLat               32585000                       # Total ticks spent in databus transfers (Tick)
system.mem_ctrl.dram.totMemAccLat           219566707                       # Total ticks spent from burst creation until serviced by the DRAM (Tick)
system.mem_ctrl.dram.avgQLat                 14941.38                       # Average queueing delay per DRAM burst ((Tick/Count))
system.mem_ctrl.dram.avgBusLat                5000.00                       # Average bus latency per DRAM burst ((Tick/Count))
system.mem_ctrl.dram.avgMemAccLat            33691.38                       # Average memory access latency per DRAM burst ((Tick/Count))
system.mem_ctrl.dram.readRowHits                 5336                       # Number of row buffer hits during reads (Count)
system.mem_ctrl.dram.writeRowHits                 540                       # Number of row buffer hits during writes (Count)
system.mem_ctrl.dram.readRowHitRate             81.88                       # Row buffer hit rate for reads (Ratio)
system.mem_ctrl.dram.writeRowHitRate            80.24                       # Row buffer hit rate for writes (Ratio)
system.mem_ctrl.dram.bytesPerActivate::samples         1311                       # Bytes accessed per row activation (Byte)
system.mem_ctrl.dram.bytesPerActivate::mean   349.290618                       # Bytes accessed per row activation (Byte)
system.mem_ctrl.dram.bytesPerActivate::gmean   207.309743                       # Bytes accessed per row activation (Byte)
system.mem_ctrl.dram.bytesPerActivate::stdev   351.608500                       # Bytes accessed per row activation (Byte)
system.mem_ctrl.dram.bytesPerActivate::0-127          418     31.88%     31.88% # Bytes accessed per row activation (Byte)
system.mem_ctrl.dram.bytesPerActivate::128-255          339     25.86%     57.74% # Bytes accessed per row activation (Byte)
system.mem_ctrl.dram.bytesPerActivate::256-383          137     10.45%     68.19% # Bytes accessed per row activation (Byte)
system.mem_ctrl.dram.bytesPerActivate::384-511           72      5.49%     73.68% # Bytes accessed per row activation (Byte)
system.mem_ctrl.dram.bytesPerActivate::512-639           41      3.13%     76.81% # Bytes accessed per row activation (Byte)
system.mem_ctrl.dram.bytesPerActivate::640-767           49      3.74%     80.55% # Bytes accessed per row activation (Byte)
system.mem_ctrl.dram.bytesPerActivate::768-895           26      1.98%     82.53% # Bytes accessed per row activation (Byte)
system.mem_ctrl.dram.bytesPerActivate::896-1023           15      1.14%     83.68% # Bytes accessed per row activation (Byte)
system.mem_ctrl.dram.bytesPerActivate::1024-1151          214     16.32%    100.00% # Bytes accessed per row activation (Byte)
system.mem_ctrl.dram.bytesPerActivate::total         1311                       # Bytes accessed per row activation (Byte)
system.mem_ctrl.dram.dramBytesRead             417088                       # Total bytes read (Byte)
system.mem_ctrl.dram.dramBytesWritten           43072                       # Total bytes written (Byte)
system.mem_ctrl.dram.avgRdBW              2176.550400                       # Average DRAM read bandwidth in MiBytes/s ((Byte/Second))
system.mem_ctrl.dram.avgWrBW               224.768823                       # Average DRAM write bandwidth in MiBytes/s ((Byte/Second))
system.mem_ctrl.dram.peakBW                  12800.00                       # Theoretical peak bandwidth in MiByte/s ((Byte/Second))
system.mem_ctrl.dram.busUtil                    18.76                       # Data bus utilization in percentage (Ratio)
system.mem_ctrl.dram.busUtilRead                17.00                       # Data bus utilization in percentage for reads (Ratio)
system.mem_ctrl.dram.busUtilWrite                1.76                       # Data bus utilization in percentage for writes (Ratio)
system.mem_ctrl.dram.pageHitRate                81.72                       # Row buffer hit rate, read and write combined (Ratio)
system.mem_ctrl.dram.power_state.pwrStateResidencyTicks::UNDEFINED    191628000                       # Cumulative time (in ticks) in various power states (Tick)
system.mem_ctrl.dram.rank0.actEnergy          5047980                       # Energy for activate commands per rank (pJ) (Joule)
system.mem_ctrl.dram.rank0.preEnergy          2679270                       # Energy for precharge commands per rank (pJ) (Joule)
system.mem_ctrl.dram.rank0.readEnergy        27074880                       # Energy for read commands per rank (pJ) (Joule)
system.mem_ctrl.dram.rank0.writeEnergy        1628640                       # Energy for write commands per rank (pJ) (Joule)
system.mem_ctrl.dram.rank0.refreshEnergy 14751360.000000                       # Energy for refresh commands per rank (pJ) (Joule)
system.mem_ctrl.dram.rank0.actBackEnergy     86768250                       # Energy for active background per rank (pJ) (Joule)
system.mem_ctrl.dram.rank0.preBackEnergy       516960                       # Energy for precharge background per rank (pJ) (Joule)
system.mem_ctrl.dram.rank0.actPowerDownEnergy            0                       # Energy for active power-down per rank (pJ) (Joule)
system.mem_ctrl.dram.rank0.prePowerDownEnergy            0                       # Energy for precharge power-down per rank (pJ) (Joule)
system.mem_ctrl.dram.rank0.selfRefreshEnergy            0                       # Energy for self refresh per rank (pJ) (Joule)
system.mem_ctrl.dram.rank0.totalEnergy      138467340                       # Total energy per rank (pJ) (Joule)
system.mem_ctrl.dram.rank0.averagePower    722.584069                       # Core power per rank (mW) (Watt)
system.mem_ctrl.dram.rank0.totalIdleTime            0                       # Total Idle time Per DRAM Rank (Tick)
system.mem_ctrl.dram.rank0.pwrStateTime::IDLE       657750                       # Time in different power states (Tick)
system.mem_ctrl.dram.rank0.pwrStateTime::REF      6240000                       # Time in different power states (Tick)
system.mem_ctrl.dram.rank0.pwrStateTime::SREF            0                       # Time in different power states (Tick)
system.mem_ctrl.dram.rank0.pwrStateTime::PRE_PDN            0                       # Time in different power states (Tick)
system.mem_ctrl.dram.rank0.pwrStateTime::ACT    184730250                       # Time in different power states (Tick)
system.mem_ctrl.dram.rank0.pwrStateTime::ACT_PDN            0                       # Time in different power states (Tick)
system.mem_ctrl.dram.rank1.actEnergy          4333980                       # Energy for activate commands per rank (pJ) (Joule)
system.mem_ctrl.dram.rank1.preEnergy          2295975                       # Energy for precharge commands per rank (pJ) (Joule)
system.mem_ctrl.dram.rank1.readEnergy        19456500                       # Energy for read commands per rank (pJ) (Joule)
system.mem_ctrl.dram.rank1.writeEnergy        1884420                       # Energy for write commands per rank (pJ) (Joule)
system.mem_ctrl.dram.rank1.refreshEnergy 14751360.000000                       # Energy for refresh commands per rank (pJ) (Joule)
system.mem_ctrl.dram.rank1.actBackEnergy     78846960                       # Energy for active background per rank (pJ) (Joule)
system.mem_ctrl.dram.rank1.preBackEnergy      7187520                       # Energy for precharge background per rank (pJ) (Joule)
system.mem_ctrl.dram.rank1.actPowerDownEnergy            0                       # Energy for active power-down per rank (pJ) (Joule)
system.mem_ctrl.dram.rank1.prePowerDownEnergy            0                       # Energy for precharge power-down per rank (pJ) (Joule)
system.mem_ctrl.dram.rank1.selfRefreshEnergy            0                       # Energy for self refresh per rank (pJ) (Joule)
system.mem_ctrl.dram.rank1.totalEnergy      128756715                       # Total energy per rank (pJ) (Joule)
system.mem_ctrl.dram.rank1.averagePower    671.909716                       # Core power per rank (mW) (Watt)
system.mem_ctrl.dram.rank1.totalIdleTime            0                       # Total Idle time Per DRAM Rank (Tick)
system.mem_ctrl.dram.rank1.pwrStateTime::IDLE     17847500                       # Time in different power states (Tick)
system.mem_ctrl.dram.rank1.pwrStateTime::REF      6240000                       # Time in different power states (Tick)
system.mem_ctrl.dram.rank1.pwrStateTime::SREF            0                       # Time in different power states (Tick)
system.mem_ctrl.dram.rank1.pwrStateTime::PRE_PDN            0                       # Time in different power states (Tick)
system.mem_ctrl.dram.rank1.pwrStateTime::ACT    167540500                       # Time in different power states (Tick)
system.mem_ctrl.dram.rank1.pwrStateTime::ACT_PDN            0                       # Time in different power states (Tick)
system.mem_ctrl.power_state.pwrStateResidencyTicks::UNDEFINED    191628000                       # Cumulative time (in ticks) in various power states (Tick)
system.membus.transDist::ReadResp                6466                       # Transaction distribution (Count)
system.membus.transDist::WritebackDirty           672                       # Transaction distribution (Count)
system.membus.transDist::CleanEvict              5890                       # Transaction distribution (Count)
system.membus.transDist::ReadExReq                 95                       # Transaction distribution (Count)
system.membus.transDist::ReadExResp                95                       # Transaction distribution (Count)
system.membus.transDist::ReadSharedReq           6465                       # Transaction distribution (Count)
system.membus.pktCount_system.l2_cache.mem_side_port::system.mem_ctrl.port        19683                       # Packet count per connected requestor and responder (Count)
system.membus.pktCount_system.l2_cache.mem_side_port::total        19683                       # Packet count per connected requestor and responder (Count)
system.membus.pktCount::total                   19683                       # Packet count per connected requestor and responder (Count)
system.membus.pktSize_system.l2_cache.mem_side_port::system.mem_ctrl.port       462912                       # Cumulative packet size per connected requestor and responder (Byte)
system.membus.pktSize_system.l2_cache.mem_side_port::total       462912                       # Cumulative packet size per connected requestor and responder (Byte)
system.membus.pktSize::total                   462912                       # Cumulative packet size per connected requestor and responder (Byte)
system.membus.snoops                                0                       # Total snoops (Count)
system.membus.snoopTraffic                          0                       # Total snoop traffic (Byte)
system.membus.snoopFanout::samples               6560                       # Request fanout histogram (Count)
system.membus.snoopFanout::mean                     0                       # Request fanout histogram (Count)
system.membus.snoopFanout::stdev                    0                       # Request fanout histogram (Count)
system.membus.snoopFanout::underflows               0      0.00%      0.00% # Request fanout histogram (Count)
system.membus.snoopFanout::0                     6560    100.00%    100.00% # Request fanout histogram (Count)
system.membus.snoopFanout::1                        0      0.00%    100.00% # Request fanout histogram (Count)
system.membus.snoopFanout::overflows                0      0.00%    100.00% # Request fanout histogram (Count)
system.membus.snoopFanout::min_value                0                       # Request fanout histogram (Count)
system.membus.snoopFanout::max_value                0                       # Request fanout histogram (Count)
system.membus.snoopFanout::total                 6560                       # Request fanout histogram (Count)
system.membus.power_state.pwrStateResidencyTicks::UNDEFINED    191628000                       # Cumulative time (in ticks) in various power states (Tick)
system.membus.reqLayer2.occupancy            15810728                       # Layer occupancy (ticks) (Tick)
system.membus.reqLayer2.utilization               0.1                       # Layer utilization (Ratio)
system.membus.respLayer2.occupancy           34315016                       # Layer occupancy (ticks) (Tick)
system.membus.respLayer2.utilization              0.2                       # Layer utilization (Ratio)
system.membus.snoop_filter.totRequests          13122                       # Total number of requests made to the snoop filter. (Count)
system.membus.snoop_filter.hitSingleRequests         6562                       # Number of requests hitting in the snoop filter with a single holder of the requested data. (Count)
system.membus.snoop_filter.hitMultiRequests            0                       # Number of requests hitting in the snoop filter with multiple (>1) holders of the requested data. (Count)
system.membus.snoop_filter.totSnoops                0                       # Total number of snoops made to the snoop filter. (Count)
system.membus.snoop_filter.hitSingleSnoops            0                       # Number of snoops hitting in the snoop filter with a single holder of the requested data. (Count)
system.membus.snoop_filter.hitMultiSnoops            0                       # Number of snoops hitting in the snoop filter with multiple (>1) holders of the requested data. (Count)
system.workload.inst.arm                            0                       # number of arm instructions executed (Count)
system.workload.inst.quiesce                        0                       # number of quiesce instructions executed (Count)

---------- End Simulation Statistics   ----------
